
*****
***** Welcome to the Xyce(TM) Parallel Electronic Simulator
*****
***** This is version Xyce Release 7.6-opensource
***** Date: Wed Dec 28 19:34:15 CET 2022


***** Executing netlist pfet_lvt/sky130_fd_pr__pfet_01v8_lvt__model.18

***** Reading and parsing netlist...
Netlist warning in file
 /foss/pdks/sky130A/libs.tech/ngspice/corners/../../../libs.ref/sky130_fd_pr/spice/sky130_fd_pr__nfet_01v8_lvt__tt.pm3.spice
 at or near line 6909
 Device model XM1:SKY130_FD_PR__NFET_01V8_LVT__MODEL.25: Model card specifies
 BSIM4 version 4.5 which is older than the oldest version supported in Xyce
 (4.6.1).  Using oldest version available.
 
Netlist warning in file
 /foss/pdks/sky130A/libs.tech/ngspice/corners/../../../libs.ref/sky130_fd_pr/spice/sky130_fd_pr__nfet_01v8_lvt__tt.pm3.spice
 at or near line 6909
 Device model XM1:SKY130_FD_PR__NFET_01V8_LVT__MODEL.25: Given pbswgd is less
 than 0.1. Pbswgd is set to 0.1
Netlist warning in file
 /foss/pdks/sky130A/libs.tech/ngspice/corners/../../../libs.ref/sky130_fd_pr/spice/sky130_fd_pr__nfet_01v8__tt.pm3.spice
 at or near line 5392
 Device model XM2:SKY130_FD_PR__NFET_01V8__MODEL.20: Model card specifies
 BSIM4 version 4.5 which is older than the oldest version supported in Xyce
 (4.6.1).  Using oldest version available.
 
Netlist warning in file
 /foss/pdks/sky130A/libs.tech/ngspice/corners/../../../libs.ref/sky130_fd_pr/spice/sky130_fd_pr__nfet_01v8__tt.pm3.spice
 at or near line 5392
 Device model XM2:SKY130_FD_PR__NFET_01V8__MODEL.20: Given pbswgd is less than
 0.1. Pbswgd is set to 0.1
Netlist warning in file
 /foss/pdks/sky130A/libs.tech/ngspice/corners/../../../libs.ref/sky130_fd_pr/spice/sky130_fd_pr__pfet_01v8_lvt__tt.pm3.spice
 at or near line 4966
 Device model XM3:SKY130_FD_PR__PFET_01V8_LVT__MODEL.18: Model card specifies
 BSIM4 version 4.5 which is older than the oldest version supported in Xyce
 (4.6.1).  Using oldest version available.
 
Netlist warning in file
 /foss/pdks/sky130A/libs.tech/ngspice/corners/../../../libs.ref/sky130_fd_pr/spice/sky130_fd_pr__pfet_01v8_lvt__tt.pm3.spice
 at or near line 4966
 Device model XM3:SKY130_FD_PR__PFET_01V8_LVT__MODEL.18: Given pbswgd is less
 than 0.1. Pbswgd is set to 0.1
Netlist warning in file
 /foss/pdks/sky130A/libs.tech/ngspice/corners/../../../libs.ref/sky130_fd_pr/spice/sky130_fd_pr__pfet_01v8__tt.pm3.spice
 at or near line 5514
 Device model XM4:SKY130_FD_PR__PFET_01V8__MODEL.20: Model card specifies
 BSIM4 version 4.5 which is older than the oldest version supported in Xyce
 (4.6.1).  Using oldest version available.
 
Netlist warning in file
 /foss/pdks/sky130A/libs.tech/ngspice/corners/../../../libs.ref/sky130_fd_pr/spice/sky130_fd_pr__pfet_01v8__tt.pm3.spice
 at or near line 5514
 Device model XM4:SKY130_FD_PR__PFET_01V8__MODEL.20: Given pbswgd is less than
 0.1. Pbswgd is set to 0.1
Netlist warning in file
 /foss/pdks/sky130A/libs.tech/ngspice/corners/../../../libs.ref/sky130_fd_pr/spice/sky130_fd_pr__pfet_01v8_hvt__tt.pm3.spice
 at or near line 5394
 Device model XM5:SKY130_FD_PR__PFET_01V8_HVT__MODEL.20: Model card specifies
 BSIM4 version 4.5 which is older than the oldest version supported in Xyce
 (4.6.1).  Using oldest version available.
 
Netlist warning in file
 /foss/pdks/sky130A/libs.tech/ngspice/corners/../../../libs.ref/sky130_fd_pr/spice/sky130_fd_pr__pfet_01v8_hvt__tt.pm3.spice
 at or near line 5394
 Device model XM5:SKY130_FD_PR__PFET_01V8_HVT__MODEL.20: Given pbswgd is less
 than 0.1. Pbswgd is set to 0.1
***** Setting up topology...

Netlist warning in file
 /foss/pdks/sky130A/libs.tech/ngspice/corners/../../../libs.ref/sky130_fd_pr/spice/sky130_fd_pr__pfet_01v8__tt.pm3.spice
 at or near line 33
 Device instance XM4:MSKY130_FD_PR__PFET_01V8: Source conductance reset to
 1.0e3 mho
Netlist warning in file
 /foss/pdks/sky130A/libs.tech/ngspice/corners/../../../libs.ref/sky130_fd_pr/spice/sky130_fd_pr__pfet_01v8__tt.pm3.spice
 at or near line 33
 Device instance XM4:MSKY130_FD_PR__PFET_01V8: Drain conductance reset to
 1.0e3 mho
Netlist warning in file
 /foss/pdks/sky130A/libs.tech/ngspice/corners/../../../libs.ref/sky130_fd_pr/spice/sky130_fd_pr__pfet_01v8_lvt__tt.pm3.spice
 at or near line 33
 Device instance XM3:MSKY130_FD_PR__PFET_01V8_LVT: Source conductance reset to
 1.0e3 mho
Netlist warning in file
 /foss/pdks/sky130A/libs.tech/ngspice/corners/../../../libs.ref/sky130_fd_pr/spice/sky130_fd_pr__pfet_01v8_lvt__tt.pm3.spice
 at or near line 33
 Device instance XM3:MSKY130_FD_PR__PFET_01V8_LVT: Drain conductance reset to
 1.0e3 mho
Netlist warning in file
 /foss/pdks/sky130A/libs.tech/ngspice/corners/../../../libs.ref/sky130_fd_pr/spice/sky130_fd_pr__nfet_01v8__tt.pm3.spice
 at or near line 31
 Device instance XM2:MSKY130_FD_PR__NFET_01V8: Source conductance reset to
 1.0e3 mho
Netlist warning in file
 /foss/pdks/sky130A/libs.tech/ngspice/corners/../../../libs.ref/sky130_fd_pr/spice/sky130_fd_pr__nfet_01v8__tt.pm3.spice
 at or near line 31
 Device instance XM2:MSKY130_FD_PR__NFET_01V8: Drain conductance reset to
 1.0e3 mho
Netlist warning in file
 /foss/pdks/sky130A/libs.tech/ngspice/corners/../../../libs.ref/sky130_fd_pr/spice/sky130_fd_pr__nfet_01v8_lvt__tt.pm3.spice
 at or near line 33
 Device instance XM1:MSKY130_FD_PR__NFET_01V8_LVT: Source conductance reset to
 1.0e3 mho
Netlist warning in file
 /foss/pdks/sky130A/libs.tech/ngspice/corners/../../../libs.ref/sky130_fd_pr/spice/sky130_fd_pr__nfet_01v8_lvt__tt.pm3.spice
 at or near line 33
 Device instance XM1:MSKY130_FD_PR__NFET_01V8_LVT: Drain conductance reset to
 1.0e3 mho
Netlist warning in file
 /foss/pdks/sky130A/libs.tech/ngspice/corners/../../../libs.ref/sky130_fd_pr/spice/sky130_fd_pr__pfet_01v8_hvt__tt.pm3.spice
 at or near line 33
 Device instance XM5:MSKY130_FD_PR__PFET_01V8_HVT: Source conductance reset to
 1.0e3 mho
Netlist warning in file
 /foss/pdks/sky130A/libs.tech/ngspice/corners/../../../libs.ref/sky130_fd_pr/spice/sky130_fd_pr__pfet_01v8_hvt__tt.pm3.spice
 at or near line 33
 Device instance XM5:MSKY130_FD_PR__PFET_01V8_HVT: Drain conductance reset to
 1.0e3 mho
***** Device Count Summary ...
       M level 14 (BSIM4)                     5
       V level 1 (Independent Voltage Source) 2
       ----------------------------------------
       Total Devices                          7
***** Setting up matrix structure...
***** Number of Unknowns = 19
***** Initializing...

Netlist warning in file
 /foss/pdks/sky130A/libs.tech/ngspice/corners/../../../libs.ref/sky130_fd_pr/spice/sky130_fd_pr__nfet_01v8_lvt__tt.pm3.spice
 at or near line 33
 Device instance XM1:MSKY130_FD_PR__NFET_01V8_LVT: Source conductance reset to
 1.0e3 mho
Netlist warning in file
 /foss/pdks/sky130A/libs.tech/ngspice/corners/../../../libs.ref/sky130_fd_pr/spice/sky130_fd_pr__nfet_01v8_lvt__tt.pm3.spice
 at or near line 33
 Device instance XM1:MSKY130_FD_PR__NFET_01V8_LVT: Drain conductance reset to
 1.0e3 mho
Netlist warning in file
 /foss/pdks/sky130A/libs.tech/ngspice/corners/../../../libs.ref/sky130_fd_pr/spice/sky130_fd_pr__nfet_01v8__tt.pm3.spice
 at or near line 31
 Device instance XM2:MSKY130_FD_PR__NFET_01V8: Source conductance reset to
 1.0e3 mho
Netlist warning in file
 /foss/pdks/sky130A/libs.tech/ngspice/corners/../../../libs.ref/sky130_fd_pr/spice/sky130_fd_pr__nfet_01v8__tt.pm3.spice
 at or near line 31
 Device instance XM2:MSKY130_FD_PR__NFET_01V8: Drain conductance reset to
 1.0e3 mho
Netlist warning in file
 /foss/pdks/sky130A/libs.tech/ngspice/corners/../../../libs.ref/sky130_fd_pr/spice/sky130_fd_pr__pfet_01v8_lvt__tt.pm3.spice
 at or near line 33
 Device instance XM3:MSKY130_FD_PR__PFET_01V8_LVT: Source conductance reset to
 1.0e3 mho
Netlist warning in file
 /foss/pdks/sky130A/libs.tech/ngspice/corners/../../../libs.ref/sky130_fd_pr/spice/sky130_fd_pr__pfet_01v8_lvt__tt.pm3.spice
 at or near line 33
 Device instance XM3:MSKY130_FD_PR__PFET_01V8_LVT: Drain conductance reset to
 1.0e3 mho
Netlist warning in file
 /foss/pdks/sky130A/libs.tech/ngspice/corners/../../../libs.ref/sky130_fd_pr/spice/sky130_fd_pr__pfet_01v8__tt.pm3.spice
 at or near line 33
 Device instance XM4:MSKY130_FD_PR__PFET_01V8: Source conductance reset to
 1.0e3 mho
Netlist warning in file
 /foss/pdks/sky130A/libs.tech/ngspice/corners/../../../libs.ref/sky130_fd_pr/spice/sky130_fd_pr__pfet_01v8__tt.pm3.spice
 at or near line 33
 Device instance XM4:MSKY130_FD_PR__PFET_01V8: Drain conductance reset to
 1.0e3 mho
Netlist warning in file
 /foss/pdks/sky130A/libs.tech/ngspice/corners/../../../libs.ref/sky130_fd_pr/spice/sky130_fd_pr__pfet_01v8_hvt__tt.pm3.spice
 at or near line 33
 Device instance XM5:MSKY130_FD_PR__PFET_01V8_HVT: Source conductance reset to
 1.0e3 mho
Netlist warning in file
 /foss/pdks/sky130A/libs.tech/ngspice/corners/../../../libs.ref/sky130_fd_pr/spice/sky130_fd_pr__pfet_01v8_hvt__tt.pm3.spice
 at or near line 33
 Device instance XM5:MSKY130_FD_PR__PFET_01V8_HVT: Drain conductance reset to
 1.0e3 mho
------------------------------------------------------------
Operating point information:
Number of BSIM4 models: 5
          name XM1:SKY130_FD_PR__NFET_01V8_LVT__MODEL.25XM2:SKY130_FD_PR__NFET_01V8__MODEL.20XM3:SKY130_FD_PR__PFET_01V8_LVT__MODEL.18XM4:SKY130_FD_PR__PFET_01V8__MODEL.20XM5:SKY130_FD_PR__PFET_01V8_HVT__MODEL.20
          type            NMOS           NMOS           PMOS           PMOS           PMOS
         level              54             54             54             54             54
        TEMPMOD              0              0              0              0              0
         IGCMOD              0              0              0              0              0
        TNOIMOD              1              1              1              1              1

        RGEOMOD              0              0              0              0              0
       RGATEMOD              0              0              0              0              0
       ACNQSMOD              0              0              0              0              0
       TRNQSMOD              0              0              0              0              0
         CAPMOD              2              2              2              2              2
    CVCHARGEMOD              0              0              0              0              0
         WPEMOD              0              0              0              0              0
             EM        4.1e+07        4.1e+07        4.1e+07        4.1e+07        4.1e+07

        IDOVVDS          1e-09          1e-09          1e-09          1e-09          1e-09
      GIDLCLAMP         -1e-05         -1e-05         -1e-05         -1e-05         -1e-05
          RNOIC          0.395          0.395          0.395          0.395          0.395
          TNOIC              0              0              0              0              0
           NOIC          8e+11              0              0              0              0
           NOIA          9e+41        2.5e+42          3e+41        1.5e+42        1.2e+41
         PKU0WE              0              0              0              0              0
          PK2WE              0              0              0              0              0

         MOBMOD              0              0              0              0              0
          WK2WE              0              0              0              0              0
         LKU0WE              0              0              0              0              0
       LKVTH0WE              0              0              0              0              0
          RNOIB           0.26           0.26           0.34           0.34           0.37
          SCREF          1e-06          1e-06          1e-06          1e-06          1e-06
          KU0WE              0              0              0              0              0
           K2WE              0              0              0              0              0

            WEB              0              0              0              0              0
         STETA0              0              0              0              0              0
          LODK2              1              1              1              1              1
         LKVTH0              0              0              0              0              0
           PKU0              0              0              0              0              0
        WLODVTH              1              1              1              1              1
        LLODKU0              0              0              0              0              0
          KVSAT            0.2            0.2              0            0.5            0.4

            KU0       -2.7e-08       -2.7e-08        5.9e-08        4.5e-08        4.5e-08
       PKVTH0WE              0              0              0              0              0
       PTVOFFCV              0              0              0              0              0
         PTETA0              0              0              0              0              0
      PTNFACTOR              0              0              0              0              0
         PTVOFF              0              0              0              0              0
            PEU              0              0              0              0              0
            PXN              0              0              0              0              0

        PLAMBDA              0              0              0              0              0
        PXRCRG2              0              0              0              0              0
        PXRCRG1              0              0              0              0              0
          PNOFF              0              0              0              0              0
          PACDE              0              0              0              0              0
        LODETA0              1              1              1              1              1
         PVFBCV              0              0              0              0              0
       PEIGBINV              0              0              0              0              0

       PNIGBINV              0              0              0              0              0
       PCIGBACC              0              0              0              0              0
       PARAMCHK              1              1              1              1              1
       PBIGBACC              0              0              0              0              0
       PAIGBACC              0              0              0              0              0
          PCIGD              0              0              0              0              0
          PAIGS              0              0              0              0              0
         PAIGSD              0              0              0              0              0

         PEGISL              0              0              0              0   -1.25717e-11
         PRGISL              0              0              0              0              0
         PBGISL              0              0              0     -0.0178538     -0.0226718
         PEGIDL              0              0              0              0   -1.25717e-11
         PCGIDL              0              0              0              0              0
         PBETA0              0              0              0   -4.21032e-10    5.62423e-11
           PCLE              0              0              0              0              0
            PCF              0              0              0              0              0

       PCKAPPAD              0              0              0              0              0
       PCKAPPAS              0              0              0              0              0
          PCGSL              0              0              0              0              0
            PB1              0              0              0              0              0
            PB0              0   -1.22403e-34              0              0              0
            PWR              0              0              0              0              0
         PPDITS              0              0              0              0              0
        PFPROUT              0              0              0              0              0

        PVOFFCV              0              0              0              0              0
       PPDIBLC2              0    5.74319e-14   -3.00076e-14    5.07207e-15   -7.22733e-15
          PPCLM              0    -4.6869e-13              0    3.06865e-12    6.91041e-12
          PETAB              0              0              0              0              0
           PPRT              0              0              0              0              0
           PRDW              0              0              0              0              0
           PRSW              0              0              0              0              0
        PMINVCV              0              0              0              0              0

         PUCSTE              0              0              0              0              0
            PUP              0              0              0              0              0
            PUD              0              0              0              0              0
           PUB1              0    1.16503e-29    8.85023e-32    -8.3942e-31    5.31343e-29
          PVTH0              0    6.81921e-14    5.88106e-13    2.85169e-14     5.5653e-13
          PDSUB              0              0              0              0              0
         PDVT1W              0              0              0              0              0
          PDVT1              0              0              0              0              0

          PDVT0              0              0              0              0              0
          PLPEB              0              0              0              0              0
          PLPE0              0              0              0              0              0
          TNOIA        2.5e+07        1.5e+07        2.5e+07        2.5e+07            1.5
         PDVTP5              0              0              0              0              0
         PDVTP2              0              0              0              0              0
           PK3B              0              0              0              0              0
          PKT1L              0              0              0              0              0

            PLP              0              0              0              0              0
            PK1              0   -2.71414e-13              0    2.89026e-12   -1.51674e-12
           PVBM              0              0              0              0              0
            PK3              0              0              0              0              0
           PVBX              0              0              0              0              0
        PGAMMA2              0              0              0              0              0
        PGAMMA1              0              0              0              0              0
          PPHIN              0              0              0              0              0

           PNSD              0              0              0              0              0
          PNDEP              0              0              0              0              0
          PNSUB              0              0              0              0              0
           WLOD              0              0              0              0              0
           PAGS              0   -3.37681e-12   -3.48426e-13    4.91015e-12   -7.46908e-12
           TKU0              0              0              0              0              0
            PAT              0              0    1.69877e-07   -2.88767e-06   -2.19333e-07
          PVSAT              0              0              0    4.80874e-06    2.25903e-07

            PXJ              0              0              0              0              0
           PCIT              0              0              0              0              0
         PCDSCD              0              0              0              0              0
         PCDSCB              0              0              0              0              0
     WTVFBSDOFF              0              0              0              0              0
            WEU              0              0              0              0              0
        WXRCRG1              0              0              0              0              0
          PKETA              0    4.56265e-14              0   -2.47504e-13    4.62256e-13

        WVOFFCV              0              0              0              0              0
          WNOFF              0              0              0              0              0
          WMOIN              0              0              0              0              0
         PDVTP3              0              0              0              0              0
           WVFB              0              0              0              0              0
       WPOXEDGE              0              0              0              0              0
         WPIGCD              0              0              0              0              0
          WNTOX              0              0              0              0              0

       WNIGBACC              0              0              0              0              0
       WNIGBINV              0              0              0              0              0
           PUTE              0   -7.42329e-12     4.1008e-12     3.4008e-12    2.08834e-11
       WCIGBINV              0              0              0              0              0
       WAIGBINV              0              0              0              0              0
           PKT1              0   -5.50648e-13              0    1.09892e-12    3.51772e-12
       WCIGBACC              0              0              0              0              0
       PNIGBACC              0              0              0              0              0

       WTVOFFCV              0              0              0              0              0
       WBIGBACC              0              0              0              0              0
       WAIGBACC              0              0              0              0              0
          WCIGD              0              0              0              0              0
          WAIGD              0              0              0              0              0
          WCIGS              0              0              0              0              0
          WBIGS              0              0              0              0              0
         WCIGSD              0              0              0              0              0

         WBIGSD              0              0              0              0              0
          WCIGC              0              0              0              0              0
         WFGISL              0              0              0              0              0
         WKGISL              0              0              0              0              0
         WRGISL              0              0              0              0              0
         WAGISL              0              0              0   -2.67817e-16    2.86503e-14
         WEGIDL              0              0              0              0    1.56685e-06
         WKGIDL              0              0              0              0              0

         PBIGSD              0              0              0              0              0
            PUB              0   -6.06932e-30              0    8.74436e-30     3.4241e-29
         WRGIDL              0              0              0              0              0
         WCGIDL              0              0              0              0              0
         WBGIDL              0              0              0        811.057       -518.737
         WAGIDL              0              0              0   -2.67817e-16    2.86503e-14
        WALPHA1              0              0              0   -7.50802e-16    1.48532e-15
           WCLE              0              0              0              0              0

            WCF              0              0              0              0              0
       WCKAPPAD              0              0              0              0              0
          WCGDL              0              0              0              0              0
          WCGSL              0              0              0              0              0
            WB1              0              0              0              0              0
            WB0              0    3.07844e-29              0              0              0
           WDWG              0              0              0              0              0
          WPVAG              0              0              0              0              0

        WPSCBE2              0              0              0    1.15474e-14   -7.49053e-15
        WFPROUT              0              0              0              0              0
       WPDIBLC2    9.15681e-10   -1.25569e-08    8.24231e-09   -4.59226e-10    1.79627e-09
       PBIGBINV              0              0              0              0              0
       WPDIBLC1              0              0              0              0              0
       RBODYMOD              1              1              1              1              1
          WETA0              0              0              0              0              0
           WPRT              0              0              0              0              0

          WPRWB              0              0              0              0              0
         PDELTA              0              0    1.29487e-13              0              0
          WPRWG              0              0              0              0              0
           WRSW              0              0              0              0              0
          WRDSW              0              0              0              0              0
         WDELTA              0              0    5.87823e-09              0              0
         PDROUT              0              0              0              0              0
        WMINVCV              0              0              0              0              0

          WVOFF    3.01483e-08   -1.79817e-08              0    9.25433e-10     4.6356e-07
      WTNFACTOR              0              0              0              0              0
         WUCSTE              0              0              0              0              0
           WUTE   -4.71447e-07    1.61494e-06   -1.02664e-06   -4.72208e-07   -2.44654e-06
          WPCLM    9.67562e-07    1.07473e-07              0    -9.6651e-07    -1.7175e-06
            WU0    1.87108e-09   -1.89607e-09    2.92999e-09    1.65045e-08     2.1658e-08
            WLP              0              0              0              0              0
            WUP              0              0              0              0              0

           WUD1              0              0              0              0              0
           WUC1    -1.4595e-16   -7.24453e-17              0   -1.99074e-17    4.55807e-15
            WUC   -1.05227e-17    5.42633e-16    9.06675e-17   -3.48263e-16   -5.59047e-16
        NIGBINV              3              0              3              3              3
         WBGISL              0              0              0        811.057       -518.737
         WBETA0    1.87103e-06              0              0    7.72155e-05   -8.60449e-06
        BIGBINV           0.03           0.03           0.03           0.03           0.03
        AIGBACC              1              1           0.43           0.43           0.43

           CIGD          0.075          0.075          0.075          0.075          0.075
         RBPBYL              0              0              0              0              0
           PDWG              0              0              0              0              0
         WDVT1W              0              0              0              0              0
         LPIGCD              0              0              0              0              0
          FGISL              0              0              0              0              0
          RGISL              1              1              1              1              1
        WPDITSD              0              0              0              0              0

          CGISL            0.5            0.5            0.5            300            300
          RGIDL              1              1              1              1              1
        CIGBINV          0.006          0.006          0.006          0.006          0.006
          CGIDL            0.5            0.5            0.5            300            300
           NIGC              1              0              1              1              1
          BETA0        17.1632          13.86        6.20165       -9.45828        2.17224
         PNGATE              0              0              0              0              0
            DWJ        2.6e-08              0              0              0              0

          DLCIG              0              0              0              0              0
             XL              0              0              0              0              0
            CLE            0.6            0.6          0.492            0.6            0.6
            VBM             -3             -3             -3             -3             -3
           CGSL    2.31073e-11              0              0    9.54827e-12    7.51389e-12
          WNDEP              0              0              0              0              0
          PMOIN              0              0              0              0              0
           WMAX          5e-06          5e-06          5e-06          5e-06          5e-06

             B1              0              0     2.1073e-24              0              0
         PAGISL              0              0              0    2.15003e-21    -2.2714e-19
          DVT1W        5.3e+06     1.6706e+06     1.9281e+06     1.1472e+06     1.1472e+06
           WMIN       3.01e-06          3e-06          3e-06          3e-06          3e-06
        BINUNIT              2              2              2              2              2
            WWC              0              0              0              0              0
          PAIGD              0              0              0              0              0
        PALPHA0              0              0              0   -1.95844e-22    2.24455e-20

          WDVT1              0              0              0              0              0
            WLC              0              0              0              0              0
           LWLC              0              0              0              0              0
          LPHIN              0              0              0              0              0
          WAIGC              0              0              0              0              0
            LWC              0              0              0              0              0
         LBETA0              0              0              0     8.7031e-05    1.09337e-05
           LINT     1.2025e-08     1.1932e-08        2.8e-09    -1.3994e-08     -1.176e-08

          DVTP0              0              0              0              0              0
        LINTNOI         -3e-07         -1e-07              0         -2e-07         -6e-08
         ALPHA0    2.63073e-05          3e-08    5.04495e-13    2.17783e-10    1.97121e-09
        TVOFFCV              0              0              0              0              0
       LCIGBINV              0              0              0              0              0
          TVOFF              0              0              0              0              0
         DIOMOD              1              1              1              1              1
          PETA0              0              0              0              0              0

      TVFBSDOFF              0              0              0              0              0
           LK3B              0              0              0              0              0
        WLODKU0              1              1              1              1              1
        LLAMBDA              0              0              0              0              0
          PCGDL              0              0              0              0              0
             XN              0              3              3              3              3
           PRWG              0       0.021507          0.052         0.1376           0.02
            VTL              0              0              0              0              0

           DVT2       -0.05637         -0.032       0.026237          0.015           0.03
          NGCON              1              1              1              1              1
         MJSWGD            0.8            0.8         0.9274         0.9274        0.70393
            XGL              0              0              0              0              0
            DLC    1.21071e-08    9.87908e-09       -1.2e-08         -3e-09      -2.56e-09
            XGW              0              0              0              0              0
          VOFFL              0    5.81977e-09              0              0              0
             UD              0              0              0              0              0

       LAIGBINV              0              0              0              0              0
            WLN              1              1              1              1              1
         PFGISL              0              0              0              0              0
          NJTSD             20             20             20             20             20
           LRDW              0              0              0              0              0
           DMCG              0              0              0              0              0
         PDITSD              0              0              0              0              0
         ALPHA1              0           0.85   -4.05837e-18      2.506e-10   -3.98216e-10

            TPB      0.0012287      0.0012287       0.001671      0.0020386      0.0019551
            LWL              0              0              0              0              0
           LCIT              0              0              0              0              0
          FGIDL              0              0              0              0              0
        PPSCBE1              0    -0.00568752              0     0.00257915    0.000268877
       PPDIBLCB              0    1.44436e-10              0              0   -6.60258e-14
          PMINV              0              0              0              0              0
          LNIGC              0              0              0              0              0

             LP              1              1              1              1              1
         PBSWGD            0.1            0.2         0.7418         0.7418         0.7418
           STK2              0              0              0              0              0
            CJS     0.00120948     0.00133975    0.000765357    0.000738019    0.000743263
          WCDSC              0              0              0              0              0
          MJSWD          0.001         0.0009         0.2659        0.29781        0.26859
          PBSWD            0.1            0.2         0.7418         0.7418         0.7418
         XRCRG2              1              1              1              1              1

          JSWGD              0              0              0              0              0
           JSWD          6e-10          6e-10     1.4472e-10       8.04e-10        8.2e-10
         PBSWGS        0.79644        0.95578         1.4338         1.4338         1.3925
           XTSS           0.02           0.02           0.02           0.02           0.02
            JSD        0.00275        0.00275     2.1483e-05     2.1483e-05       2.17e-05
            WUD              0              0              0              0              0
           LNSD              0              0              0              0              0
            WK1    7.63141e-07    1.00432e-07              0   -4.16089e-07    5.72933e-07

         WDVT0W              0              0              0              0              0
          PAIGC              0              0              0              0              0
            VFB              0             -1             -1             -1             -1
           WVTL              0              0              0              0              0
           AIGD           0.43           0.43           0.43           0.43           0.43
           NJTS             20             20             20             20             20
         WEGISL              0              0              0              0    1.56685e-06
           WKT2   -6.61938e-10    6.66111e-08              0   -3.17968e-08              0

          LBIGS              0              0              0              0              0
          DVTP1              0              0              0              0              0
            KT1      -0.251399       -0.35746      -0.611336      -0.369255       -0.30415
           PCLC              0              0              0              0              0
          PVOFF              0    4.59739e-14              0   -3.34295e-14   -6.98898e-13
           WWLC              0              0              0              0              0
        TBGASUB       0.000702       0.000702       0.000702       0.000702       0.000702
         CJSWGD    1.79529e-10    2.38233e-10    2.39155e-10    2.39155e-10    2.54074e-10

           CGSO    2.39289e-10    2.44907e-10          2e-11    5.24892e-11    5.93202e-11
         WTVOFF              0              0              0              0              0
           LKT1              0    1.68662e-07    7.98321e-08   -4.37196e-07   -7.38068e-07
           RBSB             50             50             50             50             50
            DWC        2.6e-08              0              0              0              0
          PNTOX              0              0              0              0              0
        WPSCBE1              0        1438.24              0       -640.307        497.518
             K2      0.0517634     -0.0148088     -0.0368743     -0.0102119        0.11312

          TPBSW              0              0       0.001246       0.001246     0.00014242
           LPEB    -4.9152e-08     -7.082e-08              0              0              0
         PDVT2W              0              0              0              0              0
            WXN              0              0              0              0              0
          LCIGD              0              0              0              0              0
        XTSSWGD           0.02           0.02           0.02           0.02           0.02
          EGIDL            0.8            0.8            0.8            0.1      -0.425564
         LDELTA              0              0    1.16179e-08              0              0

         NI0SUB       1.45e+10       1.45e+10       1.45e+10       1.45e+10       1.45e+10
          RNOIA          0.912           0.94           0.69           0.69          0.577
            PRT              0              0              0              0              0
           RBPB             50             50             50             50             50
         WNGATE              0              0              0              0              0
          PBSWS            0.1            0.2         0.7418         0.7418         0.7418
          WACDE              0              0              0              0              0
           XTSD           0.02           0.02           0.02           0.02           0.02

            LLC              0              0              0              0              0
             EF            1.2           0.84           0.88              1           0.88
          AIGSD           0.43           0.43           0.43           0.43           0.43
          DVTP3              0              0              0              0              0
            LUA              0   -6.99015e-16    3.57454e-16    4.29017e-15    1.38603e-14
          DMCGT              0              0              0              0              0
         WCGISL              0              0              0              0              0
            DWB      -1.08e-08              0              0    -1.7864e-08    -1.7864e-08

          LVOFF              0    6.47257e-10              0    1.89534e-08    2.87743e-07
        CKAPPAS            0.6            0.6            0.6            0.6            0.6
             LW              0              0              0              0              0
           ACDE        0.38008            0.4           0.44            0.8          0.552
         VDDEOT            1.5            1.5           -1.5           -1.5           -1.5
        NJTSSWG             20             20             20             20             20
             U0      0.0320201      0.0316354     0.00189521      0.0062941     0.00335486
        JTSSWGS              0              0              0              0              0

       PNFACTOR              0    6.14425e-12              0   -2.91551e-12   -3.75563e-11
           CIGS          0.075          0.075          0.075          0.075          0.075
           CIGC          0.075          0.075          0.075          0.075          0.075
           JSWS          6e-10          6e-10     1.4472e-10       8.04e-10        8.2e-10
         PCIGSD              0              0              0              0              0
           XTID              2              2            5.2            5.2              2
          WLPEB              0              0              0              0              0
        FNOIMOD              1              1              1              1              1

           PHIN              0              0              0              0              0
           NDEP        1.7e+17        1.7e+17        1.7e+17        1.7e+17        1.7e+17
         PDVTP4              0              0              0              0              0
           RDSW         103.65         65.968          484.7         547.88         531.92
          LETAB              0              0              0              0              0
          TETA0              0              0              0              0              0
            PU0              0   -1.56772e-14   -9.26987e-15   -6.05387e-14   -2.20614e-13
           KETA              0    -0.00997587       -0.01258     -0.0126903     -0.0651273

         LDVT2W              0              0              0              0              0
           BIGC          0.054          0.054          0.054          0.054          0.054
         TNJTSD              0              0              0              0              0
           LVBM              0              0              0              0              0
            K3B            1.6           0.54              1              2              2
            CLC          1e-07          1e-07          7e-08          1e-07          1e-07
           LUTE              0    2.72747e-06   -1.06287e-07   -1.01262e-06    -1.0982e-05
         PFGIDL              0              0              0              0              0

          EASUB           4.05           4.05           4.05           4.05           4.05
          PBIGS              0              0              0              0              0
           JTSS              0              0              0              0              0
           WCLC              0              0              0              0              0
           LCLC              0              0              0              0              0
           NSUB          6e+16          6e+16          6e+16          6e+16          6e+16
           CGBO          1e-14          1e-13          1e-13              0              0
           VOFF      -0.124996      -0.101697        -0.1819      -0.253833      -0.346608

           VSAT         351697          80000         123760         544267         231231
         TCJSWG              0              0          2e-12          2e-12          2e-12
        CKAPPAD            0.6            0.6            0.6            0.6            0.6
             LL              0              0              0              0              0
           TOXP      4.148e-09      4.148e-09       4.23e-09       4.23e-09       4.23e-09
       PPDIBLC1              0              0              0              0              0
        LEFFEOT          1e-06          1e-06          1e-06          1e-06          1e-06
        VERSION            4.5            4.5            4.5            4.5            4.5

         EPSROX            3.9            3.9            3.9            3.9            3.9
         TPBSWG              0              0              0              0              0
           LMIN          4e-06          4e-06          4e-06          4e-06          4e-06
       TNJTSSWG              0              0              0              0              0
         RDSMOD              0              0              0              0              0
            KT2     -0.0345562     -0.0625002      -0.055045     -0.0432595     -0.0313323
          DROUT         3.4946           0.56        0.43496           0.56           0.56
           NOFF         3.8661         3.4037         2.6123            3.9              4

           VTH0       0.428383       0.509405      -0.438761       -1.06963       -1.12889
           WINT        2.6e-08     2.1859e-08      7.476e-09     7.3039e-09      9.364e-09
          CDSCB    -0.00011484              0         0.0001        0.00078              0
            PW0              0              0              0              0              0
          DVT0W              0          -3.58            0.5        -4.9772         -4.254
          LKT1L              0              0              0              0              0
        BIGBACC              0              0          0.054          0.054          0.054
            EOT        1.5e-09        1.5e-09        1.5e-09        1.5e-09        1.5e-09

        CIGBACC              0              0          0.075          0.075          0.075
          XJBVD              1              1              1              1              1
           WUCS              0              0              0              0              0
           RBDB             50             50             50             50             50
         PDVTP0              0              0              0              0              0
         XRCRG1             12             12             12             12             12
         RBPSNF              0              0              0              0              0
       LTVOFFCV              0              0              0              0              0

  MTRLCOMPATMOD              0              0              0              0              0
           AIGS           0.43           0.43           0.43           0.43           0.43
             CF          1e-14     1.4067e-12              0        1.2e-11        1.2e-11
          CJSWS    3.23031e-11    3.67354e-11    9.16024e-11    9.88889e-11    9.50786e-11
         BG0SUB           1.16           1.16           1.16           1.16           1.16
         IGBMOD              0              0              0              0              0
           LRSW              0              0              0              0              0
           TOXM      4.148e-09      4.148e-09       4.23e-09       4.23e-09       4.23e-09

           BDOS              1              1              1              1              1
         VOFFCV       -0.16994       -0.17287          0.112       -0.10701        -0.1375
         WDVTP5              0              0              0              0              0
       WEIGBINV              0              0              0              0              0
          WAIGS              0              0              0              0              0
             A0        2.28244        1.01483        1.82346        1.33811        1.60589
          WNIGC              0              0              0              0              0
         TOXREF      4.148e-09      4.148e-09       4.23e-09       4.23e-09       4.23e-09

          TCJSW          1e-05          1e-05     0.00037357     0.00037357              0
            UA1     4.1745e-09   -4.84768e-10    6.68269e-10    1.28493e-09    3.91634e-09
        TEMPEOT         300.15         300.15         300.15         300.15         300.15
         WPDITS              0              0              0              0              0
            VBX              0              0              0              0              0
          BGIDL        2.3e+09        2.3e+09        2.3e+09    1.43587e+09    9.74539e+08
         WKVTH0          3e-07          2e-07        7.3e-07          2e-07        2.5e-07
           CGDL    2.31073e-11              0              0    9.54827e-12    7.51389e-12

             LC              0          5e-09          5e-09          5e-09          5e-09
             XJ        1.5e-07        1.5e-07        1.5e-07        1.5e-07        1.5e-07
          KGIDL              0              0              0              0              0
           DMDG              0              0              0              0              0
             XW              0              0              0              0              0
            NSD          1e+20          1e+20          1e+20          1e+20          1e+20
          WDSUB              0              0              0              0              0
            CIT    1.74322e-05              0   -6.39311e-11          1e-05          1e-05

        WGAMMA2              0              0              0              0              0
           DMCI              0              0              0              0              0
          NGATE          1e+23          1e+23          1e+23          1e+23          1e+23
           LPE0     2.3802e-07     1.0325e-07              0              0              0
            LWN              1              1              1              1              1
           DSUB           0.56           0.56              1           0.56           0.56
       LEIGBINV              0              0              0              0              0
         LDVTP4              0              0              0              0              0

         LBGIDL              0              0              0        3130.38        9205.12
           PUA1              0   -1.60754e-20              0   -9.05441e-21    -1.7229e-20
           RSHG            0.1            0.1            0.1            0.1            0.1
         LCDSCD              0              0              0              0              0
            WWN              1              1              1              1              1
          VFBCV             -1             -1             -1       -0.14469      -0.144689
          PPRWB              0              0              0              0              0
            LUD              0              0              0              0              0

           PKT2              0   -2.71395e-13              0    1.28077e-13              0
        VOFFCVL              0              0              0              0              0
        TBGBSUB           1108           1108           1108           1108           1108
           AIGC           0.43           0.43           0.43           0.43           0.43
          PNIGC              0              0              0              0              0
           PDWB              0              0              0              0              0
             WR              1              1              1              1              1
       WCKAPPAS              0              0              0              0              0

          DVTP4              0              0              0              0              0
         NJTSSW             20             20             20             20             20
        LLODVTH              0              0              0              0              0
         CJSWGS    1.79529e-10    2.38233e-10    2.39155e-10    2.39155e-10    2.54074e-10
             AF              1              1              1              1              1
        LPSCBE1              0        1975.29              0       -517.341       -11.5767
           WCIT   -3.67743e-11              0              0              0              0
      PVFBSDOFF              0              0              0              0              0

          BGISL        2.3e+09        2.3e+09        2.3e+09    1.43587e+09    9.74539e+08
           DVT0        0.07665              0         2.4422         4.4955           4.05
        XTSSWGS           0.02           0.02           0.02           0.02           0.02
            WA1              0              0              0              0              0
         PBGIDL              0              0              0     -0.0178538     -0.0226718
           DVT1         0.1252           0.53        0.16136          0.294            0.3
          CJSWD    3.23031e-11    3.67354e-11    9.16024e-11    9.88889e-11    9.50786e-11
            PUC              0   -2.91466e-21              0    6.82182e-22    2.71934e-21

           PVAG              0              0              0              0              0
         PKVTH0              0              0              0              0              0
          WVTH0    7.14893e-10    1.28214e-08   -4.31354e-08    5.04691e-08    1.05681e-07
          WLPE0              0              0              0              0              0
             UA   -1.51053e-09   -6.61004e-10   -3.15267e-09   -1.63067e-09   -3.36261e-09
          SAREF          3e-06          3e-06          3e-06          3e-06          3e-06
             UB    2.94321e-18    1.46891e-18    3.07008e-18    1.54546e-18    3.39459e-18
            UB1   -5.03363e-18   -1.85194e-19   -1.70918e-19    -6.2227e-19    -1.3182e-19

           NOIB          1e+27              0              0              0          2e+25
          XJBVS              1              1              1              1              1
       WNFACTOR    2.30191e-06   -7.58022e-07              0    1.72704e-06    1.69618e-05
          LPRWB              0              0              0              0              0
             UC    7.25677e-11   -1.02316e-10    3.05561e-11    4.58237e-12    4.49012e-11
            UC1    2.51876e-12    2.77605e-11     -9.961e-12    3.59891e-10   -7.35633e-10
           DTOX              0              0              0              0              0
        LALPHA1              0              0              0   -1.06836e-17    2.00458e-15

           TOXE      4.148e-09      4.148e-09       4.23e-09       4.23e-09       4.23e-09
        VTSSWGS             10             10             10             10             10
           PHIG           4.05           4.05           4.05           4.05           4.05
           WKU0              0              0              0        2.5e-07        2.5e-07
            PA2              0              0              0    6.60396e-12              0
          AGIDL              0              0              0     1.5372e-10   -9.41795e-09
            PBS         0.7477          0.729         0.6587         0.6587         0.6587
          LMOIN              0              0              0              0              0

            UD1              0              0              0              0              0
         GEOMOD              0              0              0              0              0
         PDVTP1              0              0              0              0              0
         LNGATE              0              0              0              0              0
          KGISL              0              0              0              0              0
        PDIBLCB              0        7.30421         -0.025         -0.025    -0.00701978
          LCIGC              0              0              0              0              0
          WBIGD              0              0              0              0              0

         PSCBE2          1e-08          1e-12     8.6797e-09    6.36982e-09    1.16637e-08
          LK2WE              0              0              0              0              0
       PPOXEDGE              0              0              0              0              0
             EU           1.67           1.67           1.67           1.67           1.67
             W0          1e-07              0          1e-08              0              0
           RBPD             50             50             50             50             50
        PPDITSD              0              0              0              0              0
           LCLE              0              0              0              0              0

      WVFBSDOFF              0              0              0              0              0
             AT        -304085         140000         307702        13497.3        -189634
       IJTHSFWD            0.1            0.1            0.1            0.1            0.1
            WWR              0              0              0              0              0
          UCSTE      -0.004775      -0.004775      -0.004775      -0.004775      -0.004775
           BIGS          0.054          0.054          0.054          0.054          0.054
          WBIGC              0              0              0              0              0
         PSCBE1        4.5e+08    3.00566e+08          8e+08    9.28437e+08    6.13581e+08

          PRDSW              0              0              0              0              0
             WW              0              0              0              0              0
          DVTP2              0              0              0              0              0
          CDSCD     4.7984e-06         0.0054          1e-10              0              0
       LNIGBACC              0              0              0              0              0
           TNOM             30             30             30             30             30
        RDSWMIN              0              0              0              0              0
       EPSRGATE           11.7           11.7           11.7           11.7           11.7

         LDVTP2              0              0              0              0              0
           PVTL              0              0              0              0              0
            NJS         1.2928         1.2928         1.3632         1.3632         1.2556
           CGDO    2.39289e-10    2.44907e-10          2e-11    5.24892e-11    5.93202e-11
            RSW              0              0              0              0              0
          CIGSD          0.075          0.075          0.075          0.075          0.075
          LNSUB              0              0              0              0              0
        WEFFEOT          1e-05          1e-05          1e-05          1e-05          1e-05

         LDVTP3              0              0              0              0              0
         PKGISL              0              0              0              0              0
         LEGIDL              0              0              0              0    4.21688e-06
       TNFACTOR              0              0              0              0              0
           ADOS              1              1              1              1              1
             WL              0              0              0              0              0
          XPART              0              0              0              0              0
         WKU0WE              0              0              0              0              0

          DELTA           0.01           0.01      0.0118184           0.01           0.01
       IJTHDFWD            0.1            0.1            0.1            0.1            0.1
          PIGCD              1              1              1              1              1
            UTE       -1.10162       -2.36371      -0.106371     -0.0288288       0.986635
            RSH              1              1              1              1              1
           PRWB              0              0            0.1       -0.32348       -0.32348
            JSS        0.00275        0.00275     2.1483e-05     2.1483e-05       2.17e-05
             KF              0              0              0              0              0

          RBPSL              0              0              0              0              0
            WWL              0              0              0              0              0
      TNJTSSWGD              0              0              0              0              0
             B0              0   -6.21119e-24              0              0              0
         RSWMIN              0              0              0              0              0
           LVFB              0              0              0              0              0
          WMINV              0              0              0              0              0
       VFBSDOFF              0              0              0              0              0

            MJD        0.42197           0.44         0.3362        0.34629        0.34629
           ETA0           0.08           0.08            0.2           0.08           0.08
         RBPBYW              0              0              0              0              0
          SBREF          3e-06          3e-06          3e-06          3e-06          3e-06
       NJTSSWGD             20             20             20             20             20
            PBD         0.7477          0.729         0.6587         0.6587         0.6587
          MJSWS          0.001         0.0009         0.2659        0.29781        0.26859
         PERMOD              1              1              1              1              1

            LK2              0   -5.87159e-08    -5.8921e-08    2.55199e-07   -3.85141e-07
        PDIBLC1           0.39           0.39              0           0.39           0.39
           RBPS             50             50             50             50             50
            TCJ       0.000792       0.000792      0.0012407      0.0012407      0.0012407
            PA0              0   -9.18589e-12    2.42116e-12    1.74463e-15    -4.8031e-12
         FPROUT              0              0              0              0              0
     PTVFBSDOFF              0              0              0              0              0
            LUP              0              0              0              0              0

            NJD         1.2928         1.2928         1.3632         1.3632         1.2556
          BIGSD          0.054          0.054          0.054          0.054          0.054
         GAMMA2              0              0              0              0              0
         MJSWGS            0.8            0.8         0.9274         0.9274        0.70393
         RBPBXW              0              0              0              0              0
          JSWGS              0              0              0              0              0
           MINV              0              0              0              0              0
         WDVT2W              0              0              0              0              0

           XTIS              2              2            5.2            5.2              2
        NIGBACC              1              0              1              1              1
           LUCS              0              0              0              0              0
          PPVAG              0              0              0              0              0
           WRDW              0              0              0              0              0
         XTSSWD           0.02           0.02           0.02           0.02           0.02
        EIGBINV            1.1            1.1            1.1            1.1            1.1
        POXEDGE              1              1              1              1              1

        RBSDBXW              0              0              0              0              0
          PCIGS              0              0              0              0              0
          DVTP5              0              0              0              0              0
         PDITSL              0              0              0              0              0
       IJTHDREV            0.1            0.1            0.1            0.1            0.1
         LCGIDL              0              0              0              0              0
            LK3              0              0              0              0              0
       IJTHSREV            0.1            0.1            0.1            0.1            0.1

         LBGISL              0              0              0        3130.38        9205.12
            WXT              0              0              0              0              0
         JTSSWS              0              0              0              0              0
         JTSSWD              0              0              0              0              0
            LA0              0    1.99279e-06   -4.51756e-07   -1.34959e-07    1.35669e-06
        JTSSWGD              0              0              0              0              0
        NJTSSWD             20             20             20             20             20
         LCGISL              0              0              0              0              0

         PPIGCD              0              0              0              0              0
         XTSSWS           0.02           0.02           0.02           0.02           0.02
        WALPHA0    3.70241e-11              0              0   -5.87193e-16   -5.57858e-15
          TNJTS              0              0              0              0              0
        TNJTSSW              0              0              0              0              0
       WKVTH0WE              0              0              0              0              0
       TNJTSSWD              0              0              0              0              0
           LMAX          8e-06          8e-06          8e-06          8e-06          8e-06

           VTSS             10             10             10             10             10
         RBSBY0            100            100            100            100            100
         VTSSWS             10             10             10             10             10
         WDROUT              0              0              0              0              0
        LXRCRG1              0              0              0              0              0
          LAIGC              0              0              0              0              0
         VTSSWD             10             10             10             10             10
        AIGBINV           0.35           0.35           0.35           0.35           0.35

        VTSSWGD             10             10             10             10             10
         PKGIDL              0              0              0              0              0
            AGS       0.565789       0.229019       0.320883       0.334397       0.387304
          DVT2W         -0.032          0.068         -0.032       -0.00896       -0.00896
       LPDIBLCB              0   -2.91419e-05              0              0    1.33707e-08
            LEU              0              0              0              0              0
          WETAB              0              0              0              0              0
         LDVTP1              0              0              0              0              0

             K1       0.246078       0.514358        0.64774       0.529764       0.259828
          RBPSW              0              0              0              0              0
           WDWB              0              0              0              0              0
          LNOFF              0              0              0              0              0
          RBPD0             50             50             50             50             50
          RBPDW              0              0              0              0              0
         RBPDNF              0              0              0              0              0
            UCS           1.67           1.67           1.67           1.67           1.67

         RBPBX0            100            100            100            100            100
           LUD1              0              0              0              0              0
         RBPBXL              0              0              0              0              0
          PDITS     1.4427e-15              0              0              0              0
       LNIGBINV              0              0              0              0              0
         LVFBCV              0              0              0              0              0
        RBPBXNF              0              0              0              0              0
            PA1              0              0              0              0              0

         RBPBY0            100            100            100            100            100
          EGISL            0.8            0.8            0.8            0.1      -0.425564
        RBPBYNF              0              0              0              0              0
         RBSBX0            100            100            100            100            100
            LLN              1              1              1              1              1
           NTOX              1              1              1              1              1
        RBSDBYW              0              0              0              0              0
         WCDSCB              0              0              0              0              0

         RBDBX0            100            100            100            100            100
         RBDBY0            100            100            100            100            100
          PBIGD              0              0              0              0              0
            LXJ              0              0              0              0              0
     LTVFBSDOFF              0              0              0              0              0
           JTSD              0              0              0              0              0
        RBSDBXL              0              0              0              0              0
       WPDIBLCB              0   -3.63256e-05              0              0    1.96265e-08

         JTWEFF              0              0              0              0              0
            LB1              0              0              0              0              0
          LBIGC              0              0              0              0              0
       RBSDBXNF              0              0              0              0              0
        RBSDBYL              0              0              0              0              0
          LCDSC              0              0              0              0              0
          TNOIB        9.9e+06        9.9e+06              0              0            3.5
         LCDSCB              0              0              0              0              0

       LNFACTOR              0   -1.54383e-06              0    5.21691e-07    1.10034e-05
             UP              0              0              0              0              0
          LPRWG              0              0              0              0              0
            RDW              0              0              0              0              0
         LBIGSD              0              0              0              0              0
          LVSAT              0              0              0       -1.80167      -0.569019
         GAMMA1              0              0              0              0              0
            LAT              0              0      -0.142569       0.614163        1.52153

            LXN              0              0              0              0              0
            LA1              0              0              0              0              0
          LAIGD              0              0              0              0              0
           WUA1   -6.18103e-15    2.54131e-15              0    2.24787e-15    4.28208e-15
            LA2              0              0              0   -2.21209e-06              0
           MOIN          23.81            6.9            8.7          18.13         14.504
          WPHIN              0              0              0              0              0
          LNDEP              0              0              0              0              0

        LGAMMA1              0              0              0              0              0
         WTETA0              0              0              0              0              0
        LGAMMA2              0              0              0              0              0
          PBIGC              0              0              0              0              0
           LVBX              0              0              0              0              0
            LXT              0              0              0              0              0
         LDVTP5              0              0              0              0              0
           LKU0              0              0              0              0              0

        PDIBLC2     0.00640194     0.00568755    -0.00149752    0.000322443   -0.000243116
            LK1              0    1.16826e-07              0   -7.06097e-07    7.80549e-07
           LKT2              0    8.30806e-08              0    -3.2901e-08   -5.31859e-08
            PUA              0    3.12458e-21   -1.78192e-21   -1.50412e-20   -5.71207e-20
       LPDIBLC1              0              0              0              0              0
       PAIGBINV              0              0              0              0              0
         LDVTP0              0              0              0              0              0
          LLPE0              0              0              0              0              0

        PALPHA1              0              0              0    5.32619e-23   -5.97621e-21
          WDVT2              0              0              0              0              0
          GBMIN          1e-12          1e-12          1e-12          1e-12          1e-12
          LDVT2              0              0              0              0              0
           PUD1              0              0              0              0              0
         LDVT0W              0              0              0              0              0
          PPRWG              0              0              0              0              0
            BVS           11.9           11.7          12.69          12.69           12.8

         LDVT1W              0              0              0              0              0
         LDROUT              0              0              0              0              0
       PCIGBINV              0              0              0              0              0
         MINVCV              0              0              0              0              0
          LCGDL              0              0              0              0              0
       LCKAPPAS              0              0              0              0              0
         WAIGSD              0              0              0              0              0
          LDSUB              0              0              0              0              0

         PCGISL              0              0              0              0              0
           LAGS              0    1.19238e-06    4.21523e-07   -3.06327e-07    2.43103e-06
          LVTH0              0    3.98645e-08   -4.95899e-08    3.02066e-08   -7.98702e-08
          RBPS0             50             50             50             50             50
           LUA1              0    5.08691e-15    1.11126e-16    3.61076e-15   -1.71166e-14
         LTETA0              0              0              0              0              0
         PRGIDL              0              0              0              0              0
           LUB1              0   -3.35079e-24    1.95877e-25    -1.2121e-24    2.76411e-24

            LUC              0     9.0405e-16              0   -1.20407e-16   -6.44027e-16
           LUC1              0   -6.36883e-17              0   -1.97465e-15    3.20382e-15
            LLP              0              0              0              0              0
            LU0              0    4.11849e-09     2.0277e-09     1.8191e-08    5.56235e-08
            LWR              0              0              0              0              0
        WLAMBDA              0              0              0              0              0
        LPSCBE2              0              0              0    1.21928e-14   -1.35961e-14
         LUCSTE              0              0              0              0              0

            PK2              0    8.19282e-14    2.72023e-13   -1.06871e-12    9.49288e-13
          LMINV              0              0              0              0              0
         PDVT0W              0              0              0              0              0
            DWG      -1.33e-08              0     -7.916e-09     -5.722e-09     -5.722e-09
        LMINVCV              0              0              0              0              0
          PCIGC              0              0              0              0              0
          LRDSW              0              0              0              0              0
           LPRT              0              0              0              0              0

          LETA0              0              0              0              0              0
          LPCLM              0    3.37213e-06              0    1.10588e-06    2.30388e-06
           PUC1              0     4.6917e-22              0    8.01869e-23   -1.83395e-20
       LPDIBLC2              0   -1.12712e-08    1.79185e-08   -1.51214e-09    1.84324e-09
        LFPROUT              0              0              0              0              0
         LPDITS              0              0              0              0              0
        LPDITSD              0              0              0              0              0
          LPVAG              0              0              0              0              0

           LDWG              0              0              0              0              0
             K3           1.65              2           3.39        -15.845        -13.778
           LDWB              0              0              0              0              0
            LB0              0    2.46965e-29              0              0              0
           PCLM        -0.1271      -0.355724       0.030097       0.206726      0.0602101
          LCGSL              0              0              0              0              0
       LCKAPPAD              0              0              0              0              0
            WA0   -1.76973e-06    1.61752e-06   -3.66055e-07   -6.32849e-07    2.02635e-07

        PPSCBE2              0              0              0   -4.51372e-20    4.55409e-20
            PXT              0              0              0              0              0
          LKETA              0    2.39835e-08              0    4.53159e-09   -1.04878e-07
            LCF              0              0              0              0              0
            BVD           11.9           11.7          12.69          12.69           12.8
        LALPHA0              0              0              0    3.92836e-17   -7.52884e-15
          KVTH0        7.9e-09        9.8e-09       1.76e-08       3.29e-08       2.65e-08
         LRGIDL              0              0              0              0              0

         PAGIDL              0              0              0    2.15003e-21    -2.2714e-19
         LKGIDL              0              0              0              0              0
           WUB1     8.7111e-24   -9.28108e-25   -2.21566e-26    2.08397e-25   -1.22673e-23
         LFGIDL              0              0              0              0              0
          AGISL              0              0              0     1.5372e-10   -9.41795e-09
            MJS        0.42197           0.44         0.3362        0.34629        0.34629
         LAGISL              0              0              0   -4.31266e-16    7.58181e-14
            CJD     0.00120948     0.00133975    0.000765357    0.000738019    0.000743263

          WVSAT      -0.538082              0              0       -1.39432     -0.0281551
           PUCS              0              0              0              0              0
       RBSDBYNF              0              0              0              0              0
          LDVT0              0              0              0              0              0
         LRGISL              0              0              0              0              0
          RBPDL              0              0              0              0              0
          LDVT1              0              0              0              0              0
         LKGISL              0              0              0              0              0

         WVFBCV              0              0              0              0              0
         LFGISL              0              0              0              0              0
         LEGISL              0              0              0              0    4.21688e-06
          PCDSC              0              0              0              0              0
            WAT        1.84155              0     -0.0425287         0.3597      0.0273363
         LAIGSD              0              0              0              0              0
           WAGS   -9.03619e-08    5.31575e-07   -3.43156e-09   -9.52507e-07    1.82356e-07
         LCIGSD              0              0              0              0              0

             XT       1.55e-07       1.55e-07       1.55e-07       1.55e-07       1.55e-07
          LAIGS              0              0              0              0              0
          LCIGS              0              0              0              0              0
          LBIGD              0              0              0              0              0
        NFACTOR       0.556304        2.90364         2.5373        1.22318       -2.98247
       LAIGBACC              0              0              0              0              0
       LBIGBACC              0              0              0              0              0
       LCIGBACC              0              0              0              0              0

          PDVT2              0              0              0              0              0
         LAMBDA              0              0              0              0              0
       LBIGBINV              0              0              0              0              0
          WKT1L              0              0              0              0              0
         RDWMIN              0              0              0              0              0
          LNTOX              0              0              0              0              0
       LPOXEDGE              0              0              0              0              0
            WEC              0              0              0              0              0

           KT1L              0              0              0              0              0
          LACDE              0              0              0              0              0
        LVOFFCV              0              0              0              0              0
       WBIGBINV              0              0              0              0              0
        LXRCRG2              0              0              0              0              0
         LAGIDL              0              0              0   -4.31266e-16    7.58181e-14
           VTSD             10             10             10             10             10
           LVTL              0              0              0              0              0

      LVFBSDOFF              0              0              0              0              0
        KVTH0WE              0              0              0              0              0
           PVFB              0              0              0              0              0
         LTVOFF              0              0              0              0              0
             A1              0              0              0              0              0
         WDVTP0              0              0              0              0              0
      LTNFACTOR              0              0              0              0              0
            LUB              0     1.4989e-24              0   -2.49451e-24   -8.00474e-24

          LLPEB              0              0              0              0              0
         WCDSCD              0              0              0              0              0
            WXJ              0              0              0              0              0
        GIDLMOD              0              0              0              0              0
         DLCIGD              0              0              0              0              0
            WA2              0              0              0   -1.63952e-06              0
          WKETA              0    -1.8445e-09              0    6.70453e-08    8.23959e-08
          WNSUB              0              0              0              0              0

           WNSD              0              0              0              0              0
        WXRCRG2              0              0              0              0              0
        WGAMMA1              0              0              0              0              0
          NTNOI              1              1              1              1              1
           WVBX              0              0              0              0              0
           WVBM              0              0              0              0              0
           ETAB          -0.07          -0.07       -0.00025          -0.07          -0.07
           WKT1   -1.30181e-08    1.28085e-07              0   -1.98403e-07   -6.15518e-07

           BIGD          0.054          0.054          0.054          0.054          0.054
           WK3B              0              0              0              0              0
            WW0              0              0              0              0              0
        MTRLMOD              0              0              0              0              0
             A2        0.38689       0.423855       0.467037        1.34918            0.8
         WDVTP1              0              0              0              0              0
         WDVTP2              0              0              0              0              0
        EPSRSUB           11.7           11.7           11.7           11.7           11.7

         WDVTP3              0              0              0              0              0
         WFGIDL              0              0              0              0              0
         WDVTP4              0              0              0              0              0
          WDVT0              0              0              0              0              0
            LW0              0              0              0              0              0
           CDSC     3.8556e-37              0     2.8125e-07        0.00013              0
            WK2   -2.98389e-07   -3.29888e-08   -4.19223e-08     1.3246e-07   -2.73425e-07
            WUA    1.21137e-15   -2.62061e-16    9.66927e-16    4.56789e-15    1.11504e-14

            WK3              0              0              0              0              0
            WUB   -1.39676e-24    4.22397e-25   -5.20821e-25   -2.61342e-24   -1.08235e-23

Number of BSIM4 instances: 5
          name XM1:MSKY130_FD_PR__NFET_01V8_LVTXM2:MSKY130_FD_PR__NFET_01V8XM3:MSKY130_FD_PR__PFET_01V8_LVTXM4:MSKY130_FD_PR__PFET_01V8XM5:MSKY130_FD_PR__PFET_01V8_HVT
         model XM1:SKY130_FD_PR__NFET_01V8_LVT__MODEL.25XM2:SKY130_FD_PR__NFET_01V8__MODEL.20XM3:SKY130_FD_PR__PFET_01V8_LVT__MODEL.18XM4:SKY130_FD_PR__PFET_01V8__MODEL.20XM5:SKY130_FD_PR__PFET_01V8_HVT__MODEL.20
         GEOMOD              0              0              0              0              0
       RGATEMOD              0              0              0              0              0
       RBODYMOD              1              1              1              1              1
       TRNQSMOD              0              0              0              0              0
            SCC              0              0              0              0              0
            IC3              0              0              0              0              0
             SA              0              0              0              0              0
             SD              0              0              0              0              0
             AS              0              0              0              0              0
              W          4e-06          4e-06          4e-06          4e-06          4e-06
             SB              0              0              0              0              0
            SCA              0              0              0              0              0
          NGCON              1              1              1              1              1
        RGEOMOD              0              0              0              0              0
             NF              1              1              1              1              1
           TEMP             25             25             25             25             25
             AD              0              0              0              0              0
         DELVTO              0              0              0              0              0
            MIN              0              0              0              0              0
              L          6e-06          6e-06          6e-06          6e-06          6e-06
             PD              0              0              0              0              0
            SCB              0              0              0              0              0
           RBSB             50             50             50             50             50
            XGW              0              0              0              0              0
             PS              0              0              0              0              0
            NRD              0              0              0              0              0
            NRS              0              0              0              0              0
            OFF              0              0              0              0              0
           RBDB             50             50             50             50             50
           RBPB             50             50             50             50             50
       ACNQSMOD              0              0              0              0              0
           RBPD             50             50             50             50             50
         DELVT0              0              0              0              0              0
              M              1              1              1              1              1
             SC              0              0              0              0              0
           RBPS             50             50             50             50             50
            IC1              0              0              0              0              0
            IC2              0              0              0              0              0


Number of Independent Voltage Source models: 1
          name V level 1 (Independent Voltage Source)
          type                
         level               1

Number of Independent Voltage Source instances: 2
          name             VDD           VSIG
         model V level 1 (Independent Voltage Source)V level 1 (Independent Voltage Source)
   DCSOURCETYPE              6              6
   ACSOURCETYPE              7              7
TRANSIENTSOURCETYPE              6              6
          PHASE              0              0
             TF              0              0
           DATA                              
             FS              0              0
             VA              0              0
        ACPHASE              0              0
          THETA              0              0
            MDI              0              0
            NUM              0              0
             V2              0              0
           FREQ              0              0
            VHI              0              0
             Z0             50             50
             V1              0              0
             TR              0              0
           TAU1              0              0
             PW              0              0
             V0              0              0
           TAU2              0              0
             TD              0              0
            PER              0              0
           DCV0            1.8              0
             RB              1              1
              V              0              0
            TD2              0              0
           PORT              0              0
          ACMAG              0              0
             FC              0              0
              R              0              0
              T              0              0
            TD1              0              0
            VLO              0              0
        TSAMPLE              0              0

------------------------------------------------------------

***** Solution Summary *****
	Number Successful Steps Taken:		19
	Number Failed Steps Attempted:		0
	Number Jacobians Evaluated:		73
	Number Linear Solves:			73
	Number Failed Linear Solves:		0
	Number Residual Evaluations:		93
	Number Nonlinear Convergence Failures:	0
	Total Residual Load Time:		0.000865459 seconds
	Total Jacobian Load Time:		0.000208139 seconds
	Total Linear Solution Time:		0.000627041 seconds


***** Total Simulation Solvers Run Time: 0.0100729 seconds
***** Total Elapsed Run Time:            0.62862 seconds
*****
***** End of Xyce(TM) Simulation
*****

Timing summary of 1 processor
                 Stats                   Count       CPU Time              Wall Time
---------------------------------------- ----- --------------------- ---------------------
Xyce                                         1        0.548 (100.0%)        0.974 (100.0%)
  Analysis                                   1        0.006 ( 1.10%)        0.010 ( 1.03%)
    DC Sweep                                 1        0.006 ( 1.10%)        0.010 ( 1.03%)
      Solve                                 19        0.003 ( 0.51%)        0.003 ( 0.31%)
        Residual                            93        0.001 ( 0.16%)        0.001 ( 0.10%)
        Jacobian                            73        0.000 ( 0.05%)        0.000 ( 0.03%)
        Linear Solve                        73        0.001 ( 0.12%)        0.001 ( 0.07%)
      Successful Step                       19        0.002 ( 0.37%)        0.006 ( 0.59%)
  Netlist Import                             1        0.514 (93.73%)        0.601 (61.73%)
    Parse Context                            1        0.489 (89.14%)        0.576 (59.10%)
    Distribute Devices                       1        0.020 ( 3.62%)        0.020 ( 2.04%)
    Verify Devices                           1        0.000 (<0.01%)        0.000 (<0.01%)
    Instantiate                              1        0.000 ( 0.06%)        0.000 ( 0.03%)
  Late Initialization                        1        0.002 ( 0.41%)        0.002 ( 0.24%)
    Global Indices                           1        0.000 (<0.01%)        0.000 (<0.01%)
  Setup Matrix Structure                     1        0.000 ( 0.04%)        0.000 ( 0.02%)

