
*****
***** Welcome to the Xyce(TM) Parallel Electronic Simulator
*****
***** This is version Xyce Release 7.6-opensource
***** Date: Wed Dec 28 19:34:08 CET 2022


***** Executing netlist pfet_lvt/sky130_fd_pr__pfet_01v8_lvt__model.11

***** Reading and parsing netlist...
Netlist warning in file
 /foss/pdks/sky130A/libs.tech/ngspice/corners/../../../libs.ref/sky130_fd_pr/spice/sky130_fd_pr__nfet_01v8_lvt__tt.pm3.spice
 at or near line 2784
 Device model XM1:SKY130_FD_PR__NFET_01V8_LVT__MODEL.10: Model card specifies
 BSIM4 version 4.5 which is older than the oldest version supported in Xyce
 (4.6.1).  Using oldest version available.
 
Netlist warning in file
 /foss/pdks/sky130A/libs.tech/ngspice/corners/../../../libs.ref/sky130_fd_pr/spice/sky130_fd_pr__nfet_01v8_lvt__tt.pm3.spice
 at or near line 2784
 Device model XM1:SKY130_FD_PR__NFET_01V8_LVT__MODEL.10: Given pbswgd is less
 than 0.1. Pbswgd is set to 0.1
Netlist warning in file
 /foss/pdks/sky130A/libs.tech/ngspice/corners/../../../libs.ref/sky130_fd_pr/spice/sky130_fd_pr__nfet_01v8__tt.pm3.spice
 at or near line 3248
 Device model XM2:SKY130_FD_PR__NFET_01V8__MODEL.12: Model card specifies
 BSIM4 version 4.5 which is older than the oldest version supported in Xyce
 (4.6.1).  Using oldest version available.
 
Netlist warning in file
 /foss/pdks/sky130A/libs.tech/ngspice/corners/../../../libs.ref/sky130_fd_pr/spice/sky130_fd_pr__nfet_01v8__tt.pm3.spice
 at or near line 3248
 Device model XM2:SKY130_FD_PR__NFET_01V8__MODEL.12: Given pbswgd is less than
 0.1. Pbswgd is set to 0.1
Netlist warning in file
 /foss/pdks/sky130A/libs.tech/ngspice/corners/../../../libs.ref/sky130_fd_pr/spice/sky130_fd_pr__pfet_01v8_lvt__tt.pm3.spice
 at or near line 3048
 Device model XM3:SKY130_FD_PR__PFET_01V8_LVT__MODEL.11: Model card specifies
 BSIM4 version 4.5 which is older than the oldest version supported in Xyce
 (4.6.1).  Using oldest version available.
 
Netlist warning in file
 /foss/pdks/sky130A/libs.tech/ngspice/corners/../../../libs.ref/sky130_fd_pr/spice/sky130_fd_pr__pfet_01v8_lvt__tt.pm3.spice
 at or near line 3048
 Device model XM3:SKY130_FD_PR__PFET_01V8_LVT__MODEL.11: Given pbswgd is less
 than 0.1. Pbswgd is set to 0.1
Netlist warning in file
 /foss/pdks/sky130A/libs.tech/ngspice/corners/../../../libs.ref/sky130_fd_pr/spice/sky130_fd_pr__pfet_01v8__tt.pm3.spice
 at or near line 3322
 Device model XM4:SKY130_FD_PR__PFET_01V8__MODEL.12: Model card specifies
 BSIM4 version 4.5 which is older than the oldest version supported in Xyce
 (4.6.1).  Using oldest version available.
 
Netlist warning in file
 /foss/pdks/sky130A/libs.tech/ngspice/corners/../../../libs.ref/sky130_fd_pr/spice/sky130_fd_pr__pfet_01v8__tt.pm3.spice
 at or near line 3322
 Device model XM4:SKY130_FD_PR__PFET_01V8__MODEL.12: Given pbswgd is less than
 0.1. Pbswgd is set to 0.1
Netlist warning in file
 /foss/pdks/sky130A/libs.tech/ngspice/corners/../../../libs.ref/sky130_fd_pr/spice/sky130_fd_pr__pfet_01v8_hvt__tt.pm3.spice
 at or near line 3250
 Device model XM5:SKY130_FD_PR__PFET_01V8_HVT__MODEL.12: Model card specifies
 BSIM4 version 4.5 which is older than the oldest version supported in Xyce
 (4.6.1).  Using oldest version available.
 
Netlist warning in file
 /foss/pdks/sky130A/libs.tech/ngspice/corners/../../../libs.ref/sky130_fd_pr/spice/sky130_fd_pr__pfet_01v8_hvt__tt.pm3.spice
 at or near line 3250
 Device model XM5:SKY130_FD_PR__PFET_01V8_HVT__MODEL.12: Given pbswgd is less
 than 0.1. Pbswgd is set to 0.1
***** Setting up topology...

Netlist warning in file
 /foss/pdks/sky130A/libs.tech/ngspice/corners/../../../libs.ref/sky130_fd_pr/spice/sky130_fd_pr__pfet_01v8__tt.pm3.spice
 at or near line 33
 Device instance XM4:MSKY130_FD_PR__PFET_01V8: Source conductance reset to
 1.0e3 mho
Netlist warning in file
 /foss/pdks/sky130A/libs.tech/ngspice/corners/../../../libs.ref/sky130_fd_pr/spice/sky130_fd_pr__pfet_01v8__tt.pm3.spice
 at or near line 33
 Device instance XM4:MSKY130_FD_PR__PFET_01V8: Drain conductance reset to
 1.0e3 mho
Netlist warning in file
 /foss/pdks/sky130A/libs.tech/ngspice/corners/../../../libs.ref/sky130_fd_pr/spice/sky130_fd_pr__pfet_01v8_lvt__tt.pm3.spice
 at or near line 33
 Device instance XM3:MSKY130_FD_PR__PFET_01V8_LVT: Source conductance reset to
 1.0e3 mho
Netlist warning in file
 /foss/pdks/sky130A/libs.tech/ngspice/corners/../../../libs.ref/sky130_fd_pr/spice/sky130_fd_pr__pfet_01v8_lvt__tt.pm3.spice
 at or near line 33
 Device instance XM3:MSKY130_FD_PR__PFET_01V8_LVT: Drain conductance reset to
 1.0e3 mho
Netlist warning in file
 /foss/pdks/sky130A/libs.tech/ngspice/corners/../../../libs.ref/sky130_fd_pr/spice/sky130_fd_pr__nfet_01v8__tt.pm3.spice
 at or near line 31
 Device instance XM2:MSKY130_FD_PR__NFET_01V8: Source conductance reset to
 1.0e3 mho
Netlist warning in file
 /foss/pdks/sky130A/libs.tech/ngspice/corners/../../../libs.ref/sky130_fd_pr/spice/sky130_fd_pr__nfet_01v8__tt.pm3.spice
 at or near line 31
 Device instance XM2:MSKY130_FD_PR__NFET_01V8: Drain conductance reset to
 1.0e3 mho
Netlist warning in file
 /foss/pdks/sky130A/libs.tech/ngspice/corners/../../../libs.ref/sky130_fd_pr/spice/sky130_fd_pr__nfet_01v8_lvt__tt.pm3.spice
 at or near line 33
 Device instance XM1:MSKY130_FD_PR__NFET_01V8_LVT: Source conductance reset to
 1.0e3 mho
Netlist warning in file
 /foss/pdks/sky130A/libs.tech/ngspice/corners/../../../libs.ref/sky130_fd_pr/spice/sky130_fd_pr__nfet_01v8_lvt__tt.pm3.spice
 at or near line 33
 Device instance XM1:MSKY130_FD_PR__NFET_01V8_LVT: Drain conductance reset to
 1.0e3 mho
Netlist warning in file
 /foss/pdks/sky130A/libs.tech/ngspice/corners/../../../libs.ref/sky130_fd_pr/spice/sky130_fd_pr__pfet_01v8_hvt__tt.pm3.spice
 at or near line 33
 Device instance XM5:MSKY130_FD_PR__PFET_01V8_HVT: Source conductance reset to
 1.0e3 mho
Netlist warning in file
 /foss/pdks/sky130A/libs.tech/ngspice/corners/../../../libs.ref/sky130_fd_pr/spice/sky130_fd_pr__pfet_01v8_hvt__tt.pm3.spice
 at or near line 33
 Device instance XM5:MSKY130_FD_PR__PFET_01V8_HVT: Drain conductance reset to
 1.0e3 mho
***** Device Count Summary ...
       M level 14 (BSIM4)                     5
       V level 1 (Independent Voltage Source) 2
       ----------------------------------------
       Total Devices                          7
***** Setting up matrix structure...
***** Number of Unknowns = 19
***** Initializing...

Netlist warning in file
 /foss/pdks/sky130A/libs.tech/ngspice/corners/../../../libs.ref/sky130_fd_pr/spice/sky130_fd_pr__nfet_01v8_lvt__tt.pm3.spice
 at or near line 33
 Device instance XM1:MSKY130_FD_PR__NFET_01V8_LVT: Source conductance reset to
 1.0e3 mho
Netlist warning in file
 /foss/pdks/sky130A/libs.tech/ngspice/corners/../../../libs.ref/sky130_fd_pr/spice/sky130_fd_pr__nfet_01v8_lvt__tt.pm3.spice
 at or near line 33
 Device instance XM1:MSKY130_FD_PR__NFET_01V8_LVT: Drain conductance reset to
 1.0e3 mho
Netlist warning in file
 /foss/pdks/sky130A/libs.tech/ngspice/corners/../../../libs.ref/sky130_fd_pr/spice/sky130_fd_pr__nfet_01v8__tt.pm3.spice
 at or near line 31
 Device instance XM2:MSKY130_FD_PR__NFET_01V8: Source conductance reset to
 1.0e3 mho
Netlist warning in file
 /foss/pdks/sky130A/libs.tech/ngspice/corners/../../../libs.ref/sky130_fd_pr/spice/sky130_fd_pr__nfet_01v8__tt.pm3.spice
 at or near line 31
 Device instance XM2:MSKY130_FD_PR__NFET_01V8: Drain conductance reset to
 1.0e3 mho
Netlist warning in file
 /foss/pdks/sky130A/libs.tech/ngspice/corners/../../../libs.ref/sky130_fd_pr/spice/sky130_fd_pr__pfet_01v8_lvt__tt.pm3.spice
 at or near line 33
 Device instance XM3:MSKY130_FD_PR__PFET_01V8_LVT: Source conductance reset to
 1.0e3 mho
Netlist warning in file
 /foss/pdks/sky130A/libs.tech/ngspice/corners/../../../libs.ref/sky130_fd_pr/spice/sky130_fd_pr__pfet_01v8_lvt__tt.pm3.spice
 at or near line 33
 Device instance XM3:MSKY130_FD_PR__PFET_01V8_LVT: Drain conductance reset to
 1.0e3 mho
Netlist warning in file
 /foss/pdks/sky130A/libs.tech/ngspice/corners/../../../libs.ref/sky130_fd_pr/spice/sky130_fd_pr__pfet_01v8__tt.pm3.spice
 at or near line 33
 Device instance XM4:MSKY130_FD_PR__PFET_01V8: Source conductance reset to
 1.0e3 mho
Netlist warning in file
 /foss/pdks/sky130A/libs.tech/ngspice/corners/../../../libs.ref/sky130_fd_pr/spice/sky130_fd_pr__pfet_01v8__tt.pm3.spice
 at or near line 33
 Device instance XM4:MSKY130_FD_PR__PFET_01V8: Drain conductance reset to
 1.0e3 mho
Netlist warning in file
 /foss/pdks/sky130A/libs.tech/ngspice/corners/../../../libs.ref/sky130_fd_pr/spice/sky130_fd_pr__pfet_01v8_hvt__tt.pm3.spice
 at or near line 33
 Device instance XM5:MSKY130_FD_PR__PFET_01V8_HVT: Source conductance reset to
 1.0e3 mho
Netlist warning in file
 /foss/pdks/sky130A/libs.tech/ngspice/corners/../../../libs.ref/sky130_fd_pr/spice/sky130_fd_pr__pfet_01v8_hvt__tt.pm3.spice
 at or near line 33
 Device instance XM5:MSKY130_FD_PR__PFET_01V8_HVT: Drain conductance reset to
 1.0e3 mho
------------------------------------------------------------
Operating point information:
Number of BSIM4 models: 5
          name XM1:SKY130_FD_PR__NFET_01V8_LVT__MODEL.10XM2:SKY130_FD_PR__NFET_01V8__MODEL.12XM3:SKY130_FD_PR__PFET_01V8_LVT__MODEL.11XM4:SKY130_FD_PR__PFET_01V8__MODEL.12XM5:SKY130_FD_PR__PFET_01V8_HVT__MODEL.12
          type            NMOS           NMOS           PMOS           PMOS           PMOS
         level              54             54             54             54             54
        TEMPMOD              0              0              0              0              0
         IGCMOD              0              0              0              0              0
        TNOIMOD              1              1              1              1              1

        RGEOMOD              0              0              0              0              0
       RGATEMOD              0              0              0              0              0
       ACNQSMOD              0              0              0              0              0
       TRNQSMOD              0              0              0              0              0
         CAPMOD              2              2              2              2              2
    CVCHARGEMOD              0              0              0              0              0
         WPEMOD              0              0              0              0              0
             EM        4.1e+07        4.1e+07        4.1e+07        4.1e+07        4.1e+07

        IDOVVDS          1e-09          1e-09          1e-09          1e-09          1e-09
      GIDLCLAMP         -1e-05         -1e-05         -1e-05         -1e-05         -1e-05
          RNOIC          0.395          0.395          0.395          0.395          0.395
          TNOIC              0              0              0              0              0
           NOIC          8e+11              0              0              0              0
           NOIA          9e+41        2.5e+42          3e+41        1.5e+42        1.2e+41
         PKU0WE              0              0              0              0              0
          PK2WE              0              0              0              0              0

         MOBMOD              0              0              0              0              0
          WK2WE              0              0              0              0              0
         LKU0WE              0              0              0              0              0
       LKVTH0WE              0              0              0              0              0
          RNOIB           0.26           0.26           0.34           0.34           0.37
          SCREF          1e-06          1e-06          1e-06          1e-06          1e-06
          KU0WE              0              0              0              0              0
           K2WE              0              0              0              0              0

            WEB              0              0              0              0              0
         STETA0              0              0              0              0              0
          LODK2              1              1              1              1              1
         LKVTH0              0              0              0              0              0
           PKU0              0              0              0              0              0
        WLODVTH              1              1              1              1              1
        LLODKU0              0              0              0              0              0
          KVSAT            0.2            0.2              0            0.5            0.4

            KU0       -2.7e-08       -2.7e-08        5.9e-08        4.5e-08        4.5e-08
       PKVTH0WE              0              0              0              0              0
       PTVOFFCV              0              0              0              0              0
         PTETA0              0              0              0              0              0
      PTNFACTOR              0              0              0              0              0
         PTVOFF              0              0              0              0              0
            PEU              0              0              0              0              0
            PXN              0              0              0              0              0

        PLAMBDA              0              0              0              0              0
        PXRCRG2              0              0              0              0              0
        PXRCRG1              0              0              0              0              0
          PNOFF              0              0              0              0              0
          PACDE              0              0              0              0              0
        LODETA0              1              1              1              1              1
         PVFBCV              0              0              0              0              0
       PEIGBINV              0              0              0              0              0

       PNIGBINV              0              0              0              0              0
       PCIGBACC              0              0              0              0              0
       PARAMCHK              1              1              1              1              1
       PBIGBACC              0              0              0              0              0
       PAIGBACC              0              0              0              0              0
          PCIGD              0              0              0              0              0
          PAIGS              0              0              0              0              0
         PAIGSD              0              0              0              0              0

         PEGISL              0              0              0              0    -1.4849e-11
         PRGISL              0              0              0              0              0
         PBGISL              0              0              0     -0.0158605     -0.0490415
         PEGIDL              0              0              0              0    -1.4849e-11
         PCGIDL              0              0              0              0              0
         PBETA0    2.11557e-11              0              0    -3.9213e-11    1.86389e-09
           PCLE              0              0              0              0              0
            PCF              0              0              0              0              0

       PCKAPPAD              0              0              0              0              0
       PCKAPPAS              0              0              0              0              0
          PCGSL              0              0              0              0              0
            PB1              0              0              0              0              0
            PB0              0              0              0              0              0
            PWR              0              0              0              0              0
         PPDITS              0              0              0              0              0
        PFPROUT              0              0              0              0              0

        PVOFFCV              0              0              0              0              0
       PPDIBLC2   -1.18739e-13     8.1622e-15    2.51114e-14    1.04138e-14    1.65775e-14
          PPCLM    -3.4445e-12   -5.40448e-13              0    1.63159e-11   -1.08012e-11
          PETAB              0    4.67955e-17              0    7.11186e-22   -4.91941e-12
           PPRT              0              0              0              0              0
           PRDW              0              0              0              0              0
           PRSW              0              0              0              0              0
        PMINVCV              0              0              0              0              0

         PUCSTE              0              0              0              0              0
            PUP              0              0              0              0              0
            PUD              0              0              0              0              0
           PUB1    1.20397e-28    2.32339e-29   -2.45115e-30    1.18346e-29   -1.65232e-28
          PVTH0   -1.06795e-12   -2.89864e-14    1.59455e-12    2.38319e-15    -7.5851e-14
          PDSUB    9.68035e-12              0              0              0     1.4826e-11
         PDVT1W              0              0              0              0              0
          PDVT1              0              0              0              0              0

          PDVT0              0              0              0              0              0
          PLPEB              0              0              0              0              0
          PLPE0              0              0              0              0              0
          TNOIA        2.5e+07        1.5e+07        2.5e+07        2.5e+07            1.5
         PDVTP5              0              0              0              0              0
         PDVTP2              0              0              0              0              0
           PK3B              0              0              0              0              0
          PKT1L              0              0              0              0              0

            PLP              0              0              0              0              0
            PK1    9.56402e-12    7.17323e-13              0    1.45752e-12   -1.76065e-12
           PVBM              0              0              0              0              0
            PK3              0              0              0              0              0
           PVBX              0              0              0              0              0
        PGAMMA2              0              0              0              0              0
        PGAMMA1              0              0              0              0              0
          PPHIN              0              0              0              0              0

           PNSD              0              0              0              0              0
          PNDEP              0              0              0              0              0
          PNSUB              0              0              0              0              0
           WLOD              0              0              0              0              0
           PAGS   -6.41055e-12   -3.51379e-12    7.95638e-12   -3.67141e-12    3.40079e-12
           TKU0              0              0              0              0              0
            PAT    1.90159e-05    8.33022e-08    5.67555e-06   -1.30828e-07    2.94399e-06
          PVSAT   -5.50428e-06              0    2.28936e-06   -2.36558e-07    6.32054e-07

            PXJ              0              0              0              0              0
           PCIT   -3.49767e-16              0              0              0              0
         PCDSCD              0              0              0              0              0
         PCDSCB              0              0              0              0              0
     WTVFBSDOFF              0              0              0              0              0
            WEU              0              0              0              0              0
        WXRCRG1              0              0              0              0              0
          PKETA   -2.20143e-12    1.03777e-13              0   -5.40656e-14   -6.95471e-13

        WVOFFCV              0              0              0              0              0
          WNOFF              0              0              0              0              0
          WMOIN              0              0              0              0              0
         PDVTP3              0              0              0              0              0
           WVFB              0              0              0              0              0
       WPOXEDGE              0              0              0              0              0
         WPIGCD              0              0              0              0              0
          WNTOX              0              0              0              0              0

       WNIGBACC              0              0              0              0              0
       WNIGBINV              0              0              0              0              0
           PUTE    3.84743e-12   -6.50163e-12              0   -4.24512e-12     7.0276e-11
       WCIGBINV              0              0              0              0              0
       WAIGBINV              0              0              0              0              0
           PKT1   -7.40106e-13   -8.93975e-14              0   -2.46615e-13   -2.02253e-12
       WCIGBACC              0              0              0              0              0
       PNIGBACC              0              0              0              0              0

       WTVOFFCV              0              0              0              0              0
       WBIGBACC              0              0              0              0              0
       WAIGBACC              0              0              0              0              0
          WCIGD              0              0              0              0              0
          WAIGD              0              0              0              0              0
          WCIGS              0              0              0              0              0
          WBIGS              0              0              0              0              0
         WCIGSD              0              0              0              0              0

         WBIGSD              0              0              0              0              0
          WCIGC              0              0              0              0              0
         WFGISL              0              0              0              0              0
         WKGISL              0              0              0              0              0
         WRGISL              0              0              0              0              0
         WAGISL              0              0              0   -5.47897e-16    1.29484e-13
         WEGIDL              0              0              0              0    7.33821e-06
         WKGIDL              0              0              0              0              0

         PBIGSD              0              0              0              0              0
            PUB   -2.43508e-30   -9.98515e-30    2.37452e-29    1.15997e-29    2.01183e-30
         WRGIDL              0              0              0              0              0
         WCGIDL              0              0              0              0              0
         WBGIDL              0              0              0        12411.1        30046.5
         WAGIDL              0              0              0   -5.47897e-16    1.29484e-13
        WALPHA1              0              0              0              0    1.75923e-15
           WCLE              0              0              0              0              0

            WCF              0              0              0              0              0
       WCKAPPAD              0              0              0              0              0
          WCGDL              0              0              0              0              0
          WCGSL              0              0              0              0              0
            WB1              0              0              0              0              0
            WB0              0              0              0              0              0
           WDWG              0              0              0              0              0
          WPVAG              0              0              0              0              0

        WPSCBE2              0              0              0    2.07114e-14   -3.29131e-15
        WFPROUT              0              0              0              0              0
       WPDIBLC2    6.17286e-08    4.12649e-10   -1.47481e-08   -3.44635e-09   -8.69428e-09
       PBIGBINV              0              0              0              0              0
       WPDIBLC1              0              0              0              0              0
       RBODYMOD              1              1              1              1              1
          WETA0              0              0              0   -3.37232e-14   -1.39859e-06
           WPRT              0              0              0              0              0

          WPRWB              0              0              0              0              0
         PDELTA              0              0     4.5403e-13              0              0
          WPRWG              0              0              0              0              0
           WRSW              0              0              0              0              0
          WRDSW              0              0              0              0              0
         WDELTA              0              0   -9.62911e-08              0              0
         PDROUT              0              0              0              0              0
        WMINVCV              0              0              0              0              0

          WVOFF   -1.96959e-07   -8.80834e-08              0    3.50519e-09   -5.67213e-07
      WTNFACTOR              0              0              0              0              0
         WUCSTE              0              0              0              0              0
           WUTE   -3.09042e-06     3.7831e-06              0    1.05395e-06   -3.30066e-05
          WPCLM   -1.47641e-06   -1.53192e-06              0   -3.93576e-06    2.68451e-06
            WU0    3.70887e-08   -1.22984e-09     3.4228e-09    2.58947e-08   -3.35897e-08
            WLP              0              0              0              0              0
            WUP              0              0              0              0              0

           WUD1              0              0              0              0              0
           WUC1   -1.90956e-16   -2.98561e-16              0   -2.36215e-15   -4.90147e-15
            WUC   -4.01014e-16    1.54128e-15   -3.46699e-16   -1.29912e-16   -9.70712e-16
        NIGBINV              3              0              3              3              3
         WBGISL              0              0              0        12411.1        30046.5
         WBETA0   -1.03362e-05              0              0    2.07302e-05   -0.000451911
        BIGBINV           0.03           0.03           0.03           0.03           0.03
        AIGBACC              1              1           0.43           0.43           0.43

           CIGD          0.075          0.075          0.075          0.075          0.075
         RBPBYL              0              0              0              0              0
           PDWG              0              0              0              0              0
         WDVT1W              0              0              0              0              0
         LPIGCD              0              0              0              0              0
          FGISL              0              0              0              0              0
          RGISL              1              1              1              1              1
        WPDITSD              0              0              0              0              0

          CGISL            0.5            0.5            0.5            300            300
          RGIDL              1              1              1              1              1
        CIGBINV          0.006          0.006          0.006          0.006          0.006
          CGIDL            0.5            0.5            0.5            300            300
           NIGC              1              0              1              1              1
          BETA0        15.8788          13.86        6.20165       0.927343        68.0496
         PNGATE              0              0              0              0              0
            DWJ        2.6e-08              0              0              0              0

          DLCIG              0              0              0              0              0
             XL              0              0              0              0              0
            CLE            0.6            0.6          0.492            0.6            0.6
            VBM             -3             -3             -3             -3             -3
           CGSL    2.31073e-11              0              0    9.54827e-12    7.51389e-12
          WNDEP              0              0              0              0              0
          PMOIN              0              0              0              0              0
           WMAX          7e-06          7e-06          7e-06          7e-06          7e-06

             B1              0              0     2.1073e-24              0              0
         PAGISL              0              0              0    1.11113e-21   -2.62199e-19
          DVT1W        5.3e+06     1.6706e+06     1.9281e+06     1.1472e+06     1.1472e+06
           WMIN       5.05e-06          5e-06          5e-06          5e-06          5e-06
        BINUNIT              2              2              2              2              2
            WWC              0              0              0              0              0
          PAIGD              0              0              0              0              0
        PALPHA0    3.76869e-15              0              0              0    7.84584e-14

          WDVT1              0              0              0              0              0
            WLC              0              0              0              0              0
           LWLC              0              0              0              0              0
          LPHIN              0              0              0              0              0
          WAIGC              0              0              0              0              0
            LWC              0              0              0              0              0
         LBETA0       1.06e-05              0              0    1.42479e-05   -0.000258943
           LINT     1.2025e-08     1.1932e-08        2.8e-09    -1.3994e-08     -1.176e-08

          DVTP0              0              0              0              0              0
        LINTNOI         -3e-07         -1e-07              0         -2e-07         -6e-08
         ALPHA0    0.000309412          3e-08    5.04495e-13          1e-10     0.00279318
        TVOFFCV              0              0              0              0              0
       LCIGBINV              0              0              0              0              0
          TVOFF              0              0              0              0              0
         DIOMOD              1              1              1              1              1
          PETA0              0              0              0    1.35837e-19    5.62724e-12

      TVFBSDOFF              0              0              0              0              0
           LK3B              0              0              0              0              0
        WLODKU0              1              1              1              1              1
        LLAMBDA              0              0              0              0              0
          PCGDL              0              0              0              0              0
             XN              0              3              3              3              3
           PRWG              0       0.021507          0.052         0.1376           0.02
            VTL              0              0              0              0              0

           DVT2       -0.05637         -0.032       0.026237          0.015           0.03
          NGCON              1              1              1              1              1
         MJSWGD            0.8            0.8         0.9274         0.9274        0.70393
            XGL              0              0              0              0              0
            DLC    1.21071e-08    9.87908e-09       -1.2e-08         -3e-09      -2.56e-09
            XGW              0              0              0              0              0
          VOFFL              0    5.81977e-09              0              0              0
             UD              0              0              0              0              0

       LAIGBINV              0              0              0              0              0
            WLN              1              1              1              1              1
         PFGISL              0              0              0              0              0
          NJTSD             20             20             20             20             20
           LRDW              0              0              0              0              0
           DMCG              0              0              0              0              0
         PDITSD              0              0              0              0              0
         ALPHA1              0           0.85   -4.05837e-18          1e-10   -1.51993e-10

            TPB      0.0012287      0.0012287       0.001671      0.0020386      0.0019551
            LWL              0              0              0              0              0
           LCIT    5.03406e-11              0              0              0              0
          FGIDL              0              0              0              0              0
        PPSCBE1              0    7.23794e-05              0   -0.000790052      0.0053422
       PPDIBLCB              0              0              0              0    1.61208e-13
          PMINV              0              0              0              0              0
          LNIGC              0              0              0              0              0

             LP              1              1              1              1              1
         PBSWGD            0.1            0.2         0.7418         0.7418         0.7418
           STK2              0              0              0              0              0
            CJS     0.00120948     0.00133975    0.000765357    0.000738019    0.000743263
          WCDSC              0              0              0              0              0
          MJSWD          0.001         0.0009         0.2659        0.29781        0.26859
          PBSWD            0.1            0.2         0.7418         0.7418         0.7418
         XRCRG2              1              1              1              1              1

          JSWGD              0              0              0              0              0
           JSWD          6e-10          6e-10     1.4472e-10       8.04e-10        8.2e-10
         PBSWGS        0.79644        0.95578         1.4338         1.4338         1.3925
           XTSS           0.02           0.02           0.02           0.02           0.02
            JSD        0.00275        0.00275     2.1483e-05     2.1483e-05       2.17e-05
            WUD              0              0              0              0              0
           LNSD              0              0              0              0              0
            WK1   -3.68446e-06   -1.76649e-07              0   -6.39211e-07    1.54131e-06

         WDVT0W              0              0              0              0              0
          PAIGC              0              0              0              0              0
            VFB              0             -1             -1             -1             -1
           WVTL              0              0              0              0              0
           AIGD           0.43           0.43           0.43           0.43           0.43
           NJTS             20             20             20             20             20
         WEGISL              0              0              0              0    7.33821e-06
           WKT2    -1.4681e-07    8.15732e-08              0   -9.17106e-07   -5.18707e-08

          LBIGS              0              0              0              0              0
          DVTP1              0              0              0              0              0
            KT1      -0.279442      -0.304681       -0.59135      -0.481217      -0.588402
           PCLC              0              0              0              0              0
          PVOFF    5.49145e-13    2.69355e-13              0   -2.53818e-13     6.7535e-13
           WWLC              0              0              0              0              0
        TBGASUB       0.000702       0.000702       0.000702       0.000702       0.000702
         CJSWGD    1.79529e-10    2.38233e-10    2.39155e-10    2.39155e-10    2.54074e-10

           CGSO    2.39289e-10    2.44907e-10          2e-11    5.24892e-11    5.93202e-11
         WTVOFF              0              0              0              0              0
           LKT1     1.0656e-07   -2.18783e-08              0    3.95689e-08    3.78411e-07
           RBSB             50             50             50             50             50
            DWC        2.6e-08              0              0              0              0
          PNTOX              0              0              0              0              0
        WPSCBE1              0       -36.6267              0        196.141       -2649.27
             K2       -0.23466     -0.0433528      -0.024892    -0.00871028       0.146679

          TPBSW              0              0       0.001246       0.001246     0.00014242
           LPEB    -4.9152e-08     -7.082e-08              0              0              0
         PDVT2W              0              0              0              0              0
            WXN              0              0              0              0              0
          LCIGD              0              0              0              0              0
        XTSSWGD           0.02           0.02           0.02           0.02           0.02
          EGIDL            0.8            0.8            0.8            0.1      -0.951129
         LDELTA              0              0   -5.80855e-08              0              0

         NI0SUB       1.45e+10       1.45e+10       1.45e+10       1.45e+10       1.45e+10
          RNOIA          0.912           0.94           0.69           0.69          0.577
            PRT              0              0              0              0              0
           RBPB             50             50             50             50             50
         WNGATE              0              0              0              0              0
          PBSWS            0.1            0.2         0.7418         0.7418         0.7418
          WACDE              0              0              0              0              0
           XTSD           0.02           0.02           0.02           0.02           0.02

            LLC              0              0              0              0              0
             EF            1.2           0.84           0.88              1           0.88
          AIGSD           0.43           0.43           0.43           0.43           0.43
          DVTP3              0              0              0              0              0
            LUA    9.33224e-16   -1.59045e-15    2.91236e-15    1.42253e-15   -1.73337e-15
          DMCGT              0              0              0              0              0
         WCGISL              0              0              0              0              0
            DWB      -1.08e-08              0              0    -1.7864e-08    -1.7864e-08

          LVOFF   -8.02046e-08   -3.97763e-08              0    6.41872e-08   -1.08163e-07
        CKAPPAS            0.6            0.6            0.6            0.6            0.6
             LW              0              0              0              0              0
           ACDE        0.38008            0.4           0.44            0.8          0.552
         VDDEOT            1.5            1.5           -1.5           -1.5           -1.5
        NJTSSWG             20             20             20             20             20
             U0      0.0245397      0.0333836     0.00183023     0.00845935      0.0193835
        JTSSWGS              0              0              0              0              0

       PNFACTOR    1.93017e-11    2.14486e-12              0   -1.20788e-11    3.58654e-11
           CIGS          0.075          0.075          0.075          0.075          0.075
           CIGC          0.075          0.075          0.075          0.075          0.075
           JSWS          6e-10          6e-10     1.4472e-10       8.04e-10        8.2e-10
         PCIGSD              0              0              0              0              0
           XTID              2              2            5.2            5.2              2
          WLPEB              0              0              0              0              0
        FNOIMOD              1              1              1              1              1

           PHIN              0              0              0              0              0
           NDEP        1.7e+17        1.7e+17        1.7e+17        1.7e+17        1.7e+17
         PDVTP4              0              0              0              0              0
           RDSW         103.65         65.968          484.7         547.88         531.92
          LETAB    2.73006e-07    2.73035e-07              0    2.83863e-07    9.87582e-07
          TETA0              0              0              0              0              0
            PU0   -1.18439e-13    1.46287e-15   -1.98556e-14   -7.33518e-14     8.8539e-15
           KETA       0.102621   -1.52819e-05       -0.01258    -0.00898959     -0.0872506

         LDVT2W              0              0              0              0              0
           BIGC          0.054          0.054          0.054          0.054          0.054
         TNJTSD              0              0              0              0              0
           LVBM              0              0              0              0              0
            K3B            1.6           0.54              1              2              2
            CLC          1e-07          1e-07          7e-08          1e-07          1e-07
           LUTE   -9.13171e-07    1.47798e-06              0    4.87344e-07   -9.53048e-06
         PFGIDL              0              0              0              0              0

          EASUB           4.05           4.05           4.05           4.05           4.05
          PBIGS              0              0              0              0              0
           JTSS              0              0              0              0              0
           WCLC              0              0              0              0              0
           LCLC              0              0              0              0              0
           NSUB          6e+16          6e+16          6e+16          6e+16          6e+16
           CGBO          1e-14          1e-13          1e-13              0              0
           VOFF     -0.0869578     -0.0887213        -0.1819      -0.254605      -0.109848

           VSAT        -133538          80000         238732        36738.9         293201
         TCJSWG              0              0          2e-12          2e-12          2e-12
        CKAPPAD            0.6            0.6            0.6            0.6            0.6
             LL              0              0              0              0              0
           TOXP      4.148e-09      4.148e-09       4.23e-09       4.23e-09       4.23e-09
       PPDIBLC1              0              0              0              0              0
        LEFFEOT          1e-06          1e-06          1e-06          1e-06          1e-06
        VERSION            4.5            4.5            4.5            4.5            4.5

         EPSROX            3.9            3.9            3.9            3.9            3.9
         TPBSWG              0              0              0              0              0
           LMIN          2e-06          2e-06          2e-06          2e-06          2e-06
       TNJTSSWG              0              0              0              0              0
         RDSMOD              0              0              0              0              0
            KT2     -0.0180039     -0.0581477      -0.055045       0.125811     -0.0295286
          DROUT         3.4946           0.56        0.43496           0.56           0.56
           NOFF         3.8661         3.4037         2.6123            3.9              4

           VTH0       0.338707       0.516907      -0.397076       -1.07803       -1.13296
           WINT        2.6e-08     2.1859e-08      7.476e-09     7.3039e-09      9.364e-09
          CDSCB    -0.00011484              0         0.0001        0.00078              0
            PW0              0              0              0              0              0
          DVT0W              0          -3.58            0.5        -4.9772         -4.254
          LKT1L              0              0              0              0              0
        BIGBACC              0              0          0.054          0.054          0.054
            EOT        1.5e-09        1.5e-09        1.5e-09        1.5e-09        1.5e-09

        CIGBACC              0              0          0.075          0.075          0.075
          XJBVD              1              1              1              1              1
           WUCS              0              0              0              0              0
           RBDB             50             50             50             50             50
         PDVTP0              0              0              0              0              0
         XRCRG1             12             12             12             12             12
         RBPSNF              0              0              0              0              0
       LTVOFFCV              0              0              0              0              0

  MTRLCOMPATMOD              0              0              0              0              0
           AIGS           0.43           0.43           0.43           0.43           0.43
             CF          1e-14     1.4067e-12              0        1.2e-11        1.2e-11
          CJSWS    3.23031e-11    3.67354e-11    9.16024e-11    9.88889e-11    9.50786e-11
         BG0SUB           1.16           1.16           1.16           1.16           1.16
         IGBMOD              0              0              0              0              0
           LRSW              0              0              0              0              0
           TOXM      4.148e-09      4.148e-09       4.23e-09       4.23e-09       4.23e-09

           BDOS              1              1              1              1              1
         VOFFCV       -0.16994       -0.17287          0.112       -0.10701        -0.1375
         WDVTP5              0              0              0              0              0
       WEIGBINV              0              0              0              0              0
          WAIGS              0              0              0              0              0
             A0        1.99863       0.506713        3.51395        1.09748        1.89452
          WNIGC              0              0              0              0              0
         TOXREF      4.148e-09      4.148e-09       4.23e-09       4.23e-09       4.23e-09

          TCJSW          1e-05          1e-05     0.00037357     0.00037357              0
            UA1   -6.95143e-10   -1.72151e-09     6.9609e-10    1.03033e-09    1.78289e-08
        TEMPEOT         300.15         300.15         300.15         300.15         300.15
         WPDITS              0              0              0              0              0
            VBX              0              0              0              0              0
          BGIDL        2.3e+09        2.3e+09        2.3e+09   -8.59464e+08   -3.30387e+09
         WKVTH0          3e-07          2e-07        7.3e-07          2e-07        2.5e-07
           CGDL    2.31073e-11              0              0    9.54827e-12    7.51389e-12

             LC              0          5e-09          5e-09          5e-09          5e-09
             XJ        1.5e-07        1.5e-07        1.5e-07        1.5e-07        1.5e-07
          KGIDL              0              0              0              0              0
           DMDG              0              0              0              0              0
             XW              0              0              0              0              0
            NSD          1e+20          1e+20          1e+20          1e+20          1e+20
          WDSUB   -2.43473e-06              0              0              0   -3.68483e-06
            CIT   -2.66128e-06              0   -6.39311e-11          1e-05          1e-05

        WGAMMA2              0              0              0              0              0
           DMCI              0              0              0              0              0
          NGATE          1e+23          1e+23          1e+23          1e+23          1e+23
           LPE0     2.3802e-07     1.0325e-07              0              0              0
            LWN              1              1              1              1              1
           DSUB        1.18412        0.85642              1       0.864198        1.29974
       LEIGBINV              0              0              0              0              0
         LDVTP4              0              0              0              0              0

         LBGIDL              0              0              0        2603.83        7024.72
           PUA1   -6.05446e-20   -2.27747e-20              0   -2.38754e-20    2.23473e-19
           RSHG            0.1            0.1            0.1            0.1            0.1
         LCDSCD              0              0              0              0              0
            WWN              1              1              1              1              1
          VFBCV             -1             -1             -1       -0.14469      -0.144689
          PPRWB              0              0              0              0              0
            LUD              0              0              0              0              0

           PKT2    5.64803e-13   -1.60726e-14              0    1.82821e-12   -8.54797e-14
        VOFFCVL              0              0              0              0              0
        TBGBSUB           1108           1108           1108           1108           1108
           AIGC           0.43           0.43           0.43           0.43           0.43
          PNIGC              0              0              0              0              0
           PDWB              0              0              0              0              0
             WR              1              1              1              1              1
       WCKAPPAS              0              0              0              0              0

          DVTP4              0              0              0              0              0
         NJTSSW             20             20             20             20             20
        LLODVTH              0              0              0              0              0
         CJSWGS    1.79529e-10    2.38233e-10    2.39155e-10    2.39155e-10    2.54074e-10
             AF              1              1              1              1              1
        LPSCBE1              0       -10.4049              0        111.303       -765.219
           WCIT    8.79706e-11              0              0              0              0
      PVFBSDOFF              0              0              0              0              0

          BGISL        2.3e+09        2.3e+09        2.3e+09   -8.59464e+08   -3.30387e+09
           DVT0        0.07665              0         2.4422         4.4955           4.05
        XTSSWGS           0.02           0.02           0.02           0.02           0.02
            WA1              0              0              0              0              0
         PBGIDL              0              0              0     -0.0158605     -0.0490415
           DVT1         0.1252           0.53        0.16136          0.294            0.3
          CJSWD    3.23031e-11    3.67354e-11    9.16024e-11    9.88889e-11    9.50786e-11
            PUC    1.61487e-21    -3.1302e-21    5.37388e-22    4.33881e-22    2.41581e-21

           PVAG              0              0              0              0              0
         PKVTH0              0              0              0              0              0
          WVTH0    4.57722e-07    1.14136e-08   -1.76779e-07    9.34894e-08    1.35408e-07
          WLPE0              0              0              0              0              0
             UA   -1.62816e-09   -4.08912e-10    -3.6452e-09   -1.29669e-09    9.92194e-10
          SAREF          3e-06          3e-06          3e-06          3e-06          3e-06
             UB    2.60703e-18     1.2193e-18    3.99477e-18    1.41579e-18    3.72587e-19
            UB1    5.34939e-18    1.23987e-18   -2.44978e-19   -3.55147e-19    -1.1448e-17

           NOIB          1e+27              0              0              0          2e+25
          XJBVS              1              1              1              1              1
       WNFACTOR   -6.28609e-06    -5.4495e-07              0     4.0952e-06   -2.93476e-05
          LPRWB              0              0              0              0              0
             UC    1.25109e-10   -2.09716e-10       1.11e-10   -6.22941e-11    7.10271e-11
            UC1    2.35989e-11    6.72709e-11     -9.961e-12    9.56377e-11     1.0507e-09
           DTOX              0              0              0              0              0
        LALPHA1              0              0              0              0     1.0139e-15

           TOXE      4.148e-09      4.148e-09       4.23e-09       4.23e-09       4.23e-09
        VTSSWGS             10             10             10             10             10
           PHIG           4.05           4.05           4.05           4.05           4.05
           WKU0              0              0              0        2.5e-07        2.5e-07
            PA2              0              0              0              0              0
          AGIDL              0              0              0    2.09901e-10   -1.83615e-08
            PBS         0.7477          0.729         0.6587         0.6587         0.6587
          LMOIN              0              0              0              0              0

            UD1              0              0              0              0              0
         GEOMOD              0              0              0              0              0
         PDVTP1              0              0              0              0              0
         LNGATE              0              0              0              0              0
          KGISL              0              0              0              0              0
        PDIBLCB              0         -0.025         -0.025         -0.025      0.0114241
          LCIGC              0              0              0              0              0
          WBIGD              0              0              0              0              0

         PSCBE2          1e-08          1e-12     8.6797e-09    5.32147e-09     9.7034e-09
          LK2WE              0              0              0              0              0
       PPOXEDGE              0              0              0              0              0
             EU           1.67           1.67           1.67           1.67           1.67
             W0          1e-07              0          1e-08              0              0
           RBPD             50             50             50             50             50
        PPDITSD              0              0              0              0              0
           LCLE              0              0              0              0              0

      WVFBSDOFF              0              0              0              0              0
             AT    1.97893e+06         167773         581449         101384         738803
       IJTHSFWD            0.1            0.1            0.1            0.1            0.1
            WWR              0              0              0              0              0
          UCSTE      -0.004775      -0.004775      -0.004775      -0.004775      -0.004775
           BIGS          0.054          0.054          0.054          0.054          0.054
          WBIGC              0              0              0              0              0
         PSCBE1        4.5e+08    8.05265e+08          8e+08    7.72368e+08    1.17948e+09

          PRDSW              0              0              0              0              0
             WW              0              0              0              0              0
          DVTP2              0              0              0              0              0
          CDSCD     4.7984e-06         0.0054          1e-10              0              0
       LNIGBACC              0              0              0              0              0
           TNOM             30             30             30             30             30
        RDSWMIN              0              0              0              0              0
       EPSRGATE           11.7           11.7           11.7           11.7           11.7

         LDVTP2              0              0              0              0              0
           PVTL              0              0              0              0              0
            NJS         1.2928         1.2928         1.3632         1.3632         1.2556
           CGDO    2.39289e-10    2.44907e-10          2e-11    5.24892e-11    5.93202e-11
            RSW              0              0              0              0              0
          CIGSD          0.075          0.075          0.075          0.075          0.075
          LNSUB              0              0              0              0              0
        WEFFEOT          1e-05          1e-05          1e-05          1e-05          1e-05

         LDVTP3              0              0              0              0              0
         PKGISL              0              0              0              0              0
         LEGIDL              0              0              0              0    2.12698e-06
       TNFACTOR              0              0              0              0              0
           ADOS              1              1              1              1              1
             WL              0              0              0              0              0
          XPART              0              0              0              0              0
         WKU0WE              0              0              0              0              0

          DELTA           0.01           0.01      0.0334652           0.01           0.01
       IJTHDFWD            0.1            0.1            0.1            0.1            0.1
          PIGCD              1              1              1              1              1
            UTE      -0.542507       -2.53369       -0.13298      -0.326589        4.29645
            RSH              1              1              1              1              1
           PRWB              0              0            0.1       -0.32348       -0.32348
            JSS        0.00275        0.00275     2.1483e-05     2.1483e-05       2.17e-05
             KF              0              0              0              0              0

          RBPSL              0              0              0              0              0
            WWL              0              0              0              0              0
      TNJTSSWGD              0              0              0              0              0
             B0              0              0              0              0              0
         RSWMIN              0              0              0              0              0
           LVFB              0              0              0              0              0
          WMINV              0              0              0              0              0
       VFBSDOFF              0              0              0              0              0

            MJD        0.42197           0.44         0.3362        0.34629        0.34629
           ETA0       0.158544       0.158551            0.2       0.160613       0.360769
         RBPBYW              0              0              0              0              0
          SBREF          3e-06          3e-06          3e-06          3e-06          3e-06
       NJTSSWGD             20             20             20             20             20
            PBD         0.7477          0.729         0.6587         0.6587         0.6587
          MJSWS          0.001         0.0009         0.2659        0.29781        0.26859
         PERMOD              1              1              1              1              1

            LK2    5.48547e-07    3.66453e-08   -9.05188e-08    6.50773e-08   -2.05769e-07
        PDIBLC1           0.39           0.39              0           0.39           0.39
           RBPS             50             50             50             50             50
            TCJ       0.000792       0.000792      0.0012407      0.0012407      0.0012407
            PA0   -1.10174e-12   -1.11288e-11    4.15788e-11    1.80001e-13   -2.38275e-12
         FPROUT              0              0              0              0              0
     PTVFBSDOFF              0              0              0              0              0
            LUP              0              0              0              0              0

            NJD         1.2928         1.2928         1.3632         1.3632         1.2556
          BIGSD          0.054          0.054          0.054          0.054          0.054
         GAMMA2              0              0              0              0              0
         MJSWGS            0.8            0.8         0.9274         0.9274        0.70393
         RBPBXW              0              0              0              0              0
          JSWGS              0              0              0              0              0
           MINV              0              0              0              0              0
         WDVT2W              0              0              0              0              0

           XTIS              2              2            5.2            5.2              2
        NIGBACC              1              0              1              1              1
           LUCS              0              0              0              0              0
          PPVAG              0              0              0              0              0
           WRDW              0              0              0              0              0
         XTSSWD           0.02           0.02           0.02           0.02           0.02
        EIGBINV            1.1            1.1            1.1            1.1            1.1
        POXEDGE              1              1              1              1              1

        RBSDBXW              0              0              0              0              0
          PCIGS              0              0              0              0              0
          DVTP5              0              0              0              0              0
         PDITSL              0              0              0              0              0
       IJTHDREV            0.1            0.1            0.1            0.1            0.1
         LCGIDL              0              0              0              0              0
            LK3              0              0              0              0              0
       IJTHSREV            0.1            0.1            0.1            0.1            0.1

         LBGISL              0              0              0        2603.83        7024.72
            WXT              0              0              0              0              0
         JTSSWS              0              0              0              0              0
         JTSSWD              0              0              0              0              0
            LA0    2.03138e-07    1.55552e-06   -8.34959e-06   -1.31386e-07     5.1838e-08
        JTSSWGD              0              0              0              0              0
        NJTSSWD             20             20             20             20             20
         LCGISL              0              0              0              0              0

         PPIGCD              0              0              0              0              0
         XTSSWS           0.02           0.02           0.02           0.02           0.02
        WALPHA0   -1.84818e-09              0              0              0   -1.94999e-08
          TNJTS              0              0              0              0              0
        TNJTSSW              0              0              0              0              0
       WKVTH0WE              0              0              0              0              0
       TNJTSSWD              0              0              0              0              0
           LMAX          4e-06          4e-06          4e-06          4e-06          4e-06

           VTSS             10             10             10             10             10
         RBSBY0            100            100            100            100            100
         VTSSWS             10             10             10             10             10
         WDROUT              0              0              0              0              0
        LXRCRG1              0              0              0              0              0
          LAIGC              0              0              0              0              0
         VTSSWD             10             10             10             10             10
        AIGBINV           0.35           0.35           0.35           0.35           0.35

        VTSSWGD             10             10             10             10             10
         PKGIDL              0              0              0              0              0
            AGS        -0.6735      0.0112168       0.691624     -0.0705908       0.617032
          DVT2W         -0.032          0.068         -0.032       -0.00896       -0.00896
       LPDIBLCB              0              0              0              0   -2.62208e-08
            LEU              0              0              0              0              0
          WETAB              0   -1.17691e-11              0   -1.76561e-16    1.22266e-06
         LDVTP1              0              0              0              0              0

             K1        1.04366       0.575534        0.64774       0.515779       0.142985
          RBPSW              0              0              0              0              0
           WDWB              0              0              0              0              0
          LNOFF              0              0              0              0              0
          RBPD0             50             50             50             50             50
          RBPDW              0              0              0              0              0
         RBPDNF              0              0              0              0              0
            UCS           1.67           1.67           1.67           1.67           1.67

         RBPBX0            100            100            100            100            100
           LUD1              0              0              0              0              0
         RBPBXL              0              0              0              0              0
          PDITS     1.4427e-15              0              0              0              0
       LNIGBINV              0              0              0              0              0
         LVFBCV              0              0              0              0              0
        RBPBXNF              0              0              0              0              0
            PA1              0              0              0              0              0

         RBPBY0            100            100            100            100            100
          EGISL            0.8            0.8            0.8            0.1      -0.951129
        RBPBYNF              0              0              0              0              0
         RBSBX0            100            100            100            100            100
            LLN              1              1              1              1              1
           NTOX              1              1              1              1              1
        RBSDBYW              0              0              0              0              0
         WCDSCB              0              0              0              0              0

         RBDBX0            100            100            100            100            100
         RBDBY0            100            100            100            100            100
          PBIGD              0              0              0              0              0
            LXJ              0              0              0              0              0
     LTVFBSDOFF              0              0              0              0              0
           JTSD              0              0              0              0              0
        RBSDBXL              0              0              0              0              0
       WPDIBLCB              0              0              0              0   -7.97079e-08

         JTWEFF              0              0              0              0              0
            LB1              0              0              0              0              0
          LBIGC              0              0              0              0              0
       RBSDBXNF              0              0              0              0              0
        RBSDBYL              0              0              0              0              0
          LCDSC              0              0              0              0              0
          TNOIB        9.9e+06        9.9e+06              0              0            3.5
         LCDSCB              0              0              0              0              0

       LNFACTOR   -1.81539e-06    1.05182e-08              0    1.63529e-06   -7.04915e-06
             UP              0              0              0              0              0
          LPRWG              0              0              0              0              0
            RDW              0              0              0              0              0
         LBIGSD              0              0              0              0              0
          LVSAT       0.337925              0      -0.459246      0.0338646      -0.370332
         GAMMA1              0              0              0              0              0
            LAT       -3.84345      -0.110428       -1.23602     -0.0341162        -1.1203

            LXN              0              0              0              0              0
            LA1              0              0              0              0              0
          LAIGD              0              0              0              0              0
           WUA1    1.95551e-14    1.11158e-14              0    9.18521e-15   -1.03466e-13
            LA2              0              0              0              0              0
           MOIN          23.81            6.9            8.7          18.13         14.504
          WPHIN              0              0              0              0              0
          LNDEP              0              0              0              0              0

        LGAMMA1              0              0              0              0              0
         WTETA0              0              0              0              0              0
        LGAMMA2              0              0              0              0              0
          PBIGC              0              0              0              0              0
           LVBX              0              0              0              0              0
            LXT              0              0              0              0              0
         LDVTP5              0              0              0              0              0
           LKU0              0              0              0              0              0

        PDIBLC2    -0.00793364      0.0013299     0.00237521    0.000471777     0.00196039
            LK1   -1.54047e-06   -1.03622e-07              0   -1.82106e-07    5.17453e-07
           LKT2   -6.25607e-08    2.25619e-09              0   -3.39645e-07   -1.38502e-09
            PUA   -4.38909e-21    6.35517e-21   -1.56938e-20   -1.90374e-20   -1.13813e-21
       LPDIBLC1              0              0              0              0              0
       PAIGBINV              0              0              0              0              0
         LDVTP0              0              0              0              0              0
          LLPE0              0              0              0              0              0

        PALPHA1              0              0              0              0   -7.07829e-21
          WDVT2              0              0              0              0              0
          GBMIN          1e-12          1e-12          1e-12          1e-12          1e-12
          LDVT2              0              0              0              0              0
           PUD1              0              0              0              0              0
         LDVT0W              0              0              0              0              0
          PPRWG              0              0              0              0              0
            BVS           11.9           11.7          12.69          12.69           12.8

         LDVT1W              0              0              0              0              0
         LDROUT              0              0              0              0              0
       PCIGBINV              0              0              0              0              0
         MINVCV              0              0              0              0              0
          LCGDL              0              0              0              0              0
       LCKAPPAS              0              0              0              0              0
         WAIGSD              0              0              0              0              0
          LDSUB   -2.48146e-06   -1.17861e-06              0   -1.22531e-06   -2.97634e-06

         PCGISL              0              0              0              0              0
           LAGS    4.63184e-06     1.1562e-06   -1.22507e-06    1.34544e-06    1.90887e-07
          LVTH0    2.06674e-07    3.07721e-08   -3.10904e-07    3.45224e-08    3.94235e-08
          RBPS0             50             50             50             50             50
           LUA1    1.09522e-14    4.47725e-15              0    2.00405e-15   -3.43845e-14
         LTETA0              0              0              0              0              0
         PRGIDL              0              0              0              0              0
           LUB1   -2.25271e-23   -4.06105e-24    4.91701e-25   -8.44588e-25    2.50167e-23

            LUC   -2.21451e-16    5.73417e-16   -7.86748e-17    2.23575e-17   -3.55695e-16
           LUC1    -9.1229e-17   -5.39152e-17              0   -8.87373e-16   -2.91222e-15
            LLP              0              0              0              0              0
            LU0    2.54382e-08   -6.82543e-09    4.01587e-09    4.45263e-09    -1.0309e-08
            LWR              0              0              0              0              0
        WLAMBDA              0              0              0              0              0
        LPSCBE2              0              0              0    4.73943e-15   -4.05607e-15
         LUCSTE              0              0              0              0              0

            PK2   -3.40258e-12   -2.92787e-13    4.36277e-13   -5.18136e-13    7.23318e-13
          LMINV              0              0              0              0              0
         PDVT0W              0              0              0              0              0
            DWG      -1.33e-08              0     -7.916e-09     -5.722e-09     -5.722e-09
        LMINVCV              0              0              0              0              0
          PCIGC              0              0              0              0              0
          LRDSW              0              0              0              0              0
           LPRT              0              0              0              0              0

          LETA0   -3.12287e-07   -3.12331e-07              0   -3.24706e-07   -1.12968e-06
          LPCLM    6.13991e-07   -3.18005e-08              0   -2.46054e-06    1.45056e-06
           PUC1     2.1014e-22    5.41172e-22              0    9.40071e-21    1.43846e-20
       LPDIBLC2     3.2385e-08    5.59149e-09    9.81407e-09   -7.71651e-10   -3.32796e-09
        LFPROUT              0              0              0              0              0
         LPDITS              0              0              0              0              0
        LPDITSD              0              0              0              0              0
          LPVAG              0              0              0              0              0

           LDWG              0              0              0              0              0
             K3           1.65              2           3.39        -15.845        -13.778
           LDWB              0              0              0              0              0
            LB0              0              0              0              0              0
           PCLM       0.382757       0.834778       0.030097        1.02804       0.272292
          LCGSL              0              0              0              0              0
       LCKAPPAD              0              0              0              0              0
            WA0   -3.47393e-07    5.16958e-06    -8.7398e-06    5.18083e-07   -2.21192e-07

        PPSCBE2              0              0              0   -2.38398e-20    2.04133e-20
            PXT              0              0              0              0              0
          LKETA   -4.08016e-07   -7.63233e-09              0   -1.48999e-08    9.02241e-08
            LCF              0              0              0              0              0
            BVD           11.9           11.7          12.69          12.69           12.8
        LALPHA0   -3.79655e-10              0              0              0   -1.12384e-08
          KVTH0        7.9e-09        9.8e-09       1.76e-08       3.29e-08       2.65e-08
         LRGIDL              0              0              0              0              0

         PAGIDL              0              0              0    1.11113e-21   -2.62199e-19
         LKGIDL              0              0              0              0              0
           WUB1   -4.50585e-23    -1.0019e-23    6.13648e-25   -4.72468e-24    7.08245e-23
         LFGIDL              0              0              0              0              0
          AGISL              0              0              0    2.09901e-10   -1.83615e-08
            MJS        0.42197           0.44         0.3362        0.34629        0.34629
         LAGISL              0              0              0   -2.22877e-16    3.73945e-14
            CJD     0.00120948     0.00133975    0.000765357    0.000738019    0.000743263

          WVSAT        2.84129              0      -0.573143       0.116646      -0.683767
           PUCS              0              0              0              0              0
       RBSDBYNF              0              0              0              0              0
          LDVT0              0              0              0              0              0
         LRGISL              0              0              0              0              0
          RBPDL              0              0              0              0              0
          LDVT1              0              0              0              0              0
         LKGISL              0              0              0              0              0

         WVFBCV              0              0              0              0              0
         LFGISL              0              0              0              0              0
         LEGISL              0              0              0              0    2.12698e-06
          PCDSC              0              0              0              0              0
            WAT       -9.50165     -0.0209505       -1.42088      0.0394964       -2.11298
         LAIGSD              0              0              0              0              0
           WAGS    1.89253e-06    1.69061e-06   -1.87574e-06    1.15263e-06   -8.90182e-07
         LCIGSD              0              0              0              0              0

             XT       1.55e-07       1.55e-07       1.55e-07       1.55e-07       1.55e-07
          LAIGS              0              0              0              0              0
          LCIGS              0              0              0              0              0
          LBIGD              0              0              0              0              0
        NFACTOR        1.76453        2.67268         2.5373       0.928009        7.13764
       LAIGBACC              0              0              0              0              0
       LBIGBACC              0              0              0              0              0
       LCIGBACC              0              0              0              0              0

          PDVT2              0              0              0              0              0
         LAMBDA              0              0              0              0              0
       LBIGBINV              0              0              0              0              0
          WKT1L              0              0              0              0              0
         RDWMIN              0              0              0              0              0
          LNTOX              0              0              0              0              0
       LPOXEDGE              0              0              0              0              0
            WEC              0              0              0              0              0

           KT1L              0              0              0              0              0
          LACDE              0              0              0              0              0
        LVOFFCV              0              0              0              0              0
       WBIGBINV              0              0              0              0              0
        LXRCRG2              0              0              0              0              0
         LAGIDL              0              0              0   -2.22877e-16    3.73945e-14
           VTSD             10             10             10             10             10
           LVTL              0              0              0              0              0

      LVFBSDOFF              0              0              0              0              0
        KVTH0WE              0              0              0              0              0
           PVFB              0              0              0              0              0
         LTVOFF              0              0              0              0              0
             A1              0              0              0              0              0
         WDVTP0              0              0              0              0              0
      LTNFACTOR              0              0              0              0              0
            LUB    4.20942e-25    1.92106e-24   -4.29088e-24    -9.1442e-25     6.4772e-25

          LLPEB              0              0              0              0              0
         WCDSCD              0              0              0              0              0
            WXJ              0              0              0              0              0
        GIDLMOD              0              0              0              0              0
         DLCIGD              0              0              0              0              0
            WA2              0              0              0              0              0
          WKETA    5.53687e-07   -2.64274e-08              0    2.46223e-08    2.38794e-07
          WNSUB              0              0              0              0              0

           WNSD              0              0              0              0              0
        WXRCRG2              0              0              0              0              0
        WGAMMA1              0              0              0              0              0
          NTNOI              1              1              1              1              1
           WVBX              0              0              0              0              0
           WVBM              0              0              0              0              0
           ETAB      -0.138664      -0.138668       -0.00025      -0.140473      -0.315452
           WKT1    1.79201e-07   -1.19938e-08              0     1.0373e-07    7.95139e-07

           BIGD          0.054          0.054          0.054          0.054          0.054
           WK3B              0              0              0              0              0
            WW0              0              0              0              0              0
        MTRLMOD              0              0              0              0              0
             A2        0.38689       0.423855       0.467037            0.8            0.8
         WDVTP1              0              0              0              0              0
         WDVTP2              0              0              0              0              0
        EPSRSUB           11.7           11.7           11.7           11.7           11.7

         WDVTP3              0              0              0              0              0
         WFGIDL              0              0              0              0              0
         WDVTP4              0              0              0              0              0
          WDVT0              0              0              0              0              0
            LW0              0              0              0              0              0
           CDSC     3.8556e-37              0     2.8125e-07        0.00013              0
            WK2    1.29637e-06    8.38565e-08   -1.03341e-07    2.23598e-07   -6.06499e-07
            WUA    1.74228e-15   -1.21282e-15    3.71653e-15    7.44423e-15   -5.15024e-15

            WK3              0              0              0              0              0
            WUB    3.52629e-25    2.11813e-24   -5.72004e-24   -4.63152e-24    1.52802e-24

Number of BSIM4 instances: 5
          name XM1:MSKY130_FD_PR__NFET_01V8_LVTXM2:MSKY130_FD_PR__NFET_01V8XM3:MSKY130_FD_PR__PFET_01V8_LVTXM4:MSKY130_FD_PR__PFET_01V8XM5:MSKY130_FD_PR__PFET_01V8_HVT
         model XM1:SKY130_FD_PR__NFET_01V8_LVT__MODEL.10XM2:SKY130_FD_PR__NFET_01V8__MODEL.12XM3:SKY130_FD_PR__PFET_01V8_LVT__MODEL.11XM4:SKY130_FD_PR__PFET_01V8__MODEL.12XM5:SKY130_FD_PR__PFET_01V8_HVT__MODEL.12
         GEOMOD              0              0              0              0              0
       RGATEMOD              0              0              0              0              0
       RBODYMOD              1              1              1              1              1
       TRNQSMOD              0              0              0              0              0
            SCC              0              0              0              0              0
            IC3              0              0              0              0              0
             SA              0              0              0              0              0
             SD              0              0              0              0              0
             AS              0              0              0              0              0
              W          6e-06          6e-06          6e-06          6e-06          6e-06
             SB              0              0              0              0              0
            SCA              0              0              0              0              0
          NGCON              1              1              1              1              1
        RGEOMOD              0              0              0              0              0
             NF              1              1              1              1              1
           TEMP             25             25             25             25             25
             AD              0              0              0              0              0
         DELVTO              0              0              0              0              0
            MIN              0              0              0              0              0
              L          3e-06          3e-06          3e-06          3e-06          3e-06
             PD              0              0              0              0              0
            SCB              0              0              0              0              0
           RBSB             50             50             50             50             50
            XGW              0              0              0              0              0
             PS              0              0              0              0              0
            NRD              0              0              0              0              0
            NRS              0              0              0              0              0
            OFF              0              0              0              0              0
           RBDB             50             50             50             50             50
           RBPB             50             50             50             50             50
       ACNQSMOD              0              0              0              0              0
           RBPD             50             50             50             50             50
         DELVT0              0              0              0              0              0
              M              1              1              1              1              1
             SC              0              0              0              0              0
           RBPS             50             50             50             50             50
            IC1              0              0              0              0              0
            IC2              0              0              0              0              0


Number of Independent Voltage Source models: 1
          name V level 1 (Independent Voltage Source)
          type                
         level               1

Number of Independent Voltage Source instances: 2
          name             VDD           VSIG
         model V level 1 (Independent Voltage Source)V level 1 (Independent Voltage Source)
   DCSOURCETYPE              6              6
   ACSOURCETYPE              7              7
TRANSIENTSOURCETYPE              6              6
          PHASE              0              0
             TF              0              0
           DATA                              
             FS              0              0
             VA              0              0
        ACPHASE              0              0
          THETA              0              0
            MDI              0              0
            NUM              0              0
             V2              0              0
           FREQ              0              0
            VHI              0              0
             Z0             50             50
             V1              0              0
             TR              0              0
           TAU1              0              0
             PW              0              0
             V0              0              0
           TAU2              0              0
             TD              0              0
            PER              0              0
           DCV0            1.8              0
             RB              1              1
              V              0              0
            TD2              0              0
           PORT              0              0
          ACMAG              0              0
             FC              0              0
              R              0              0
              T              0              0
            TD1              0              0
            VLO              0              0
        TSAMPLE              0              0

------------------------------------------------------------

***** Solution Summary *****
	Number Successful Steps Taken:		19
	Number Failed Steps Attempted:		0
	Number Jacobians Evaluated:		73
	Number Linear Solves:			73
	Number Failed Linear Solves:		0
	Number Residual Evaluations:		93
	Number Nonlinear Convergence Failures:	0
	Total Residual Load Time:		0.000844479 seconds
	Total Jacobian Load Time:		0.000188112 seconds
	Total Linear Solution Time:		0.000570059 seconds


***** Total Simulation Solvers Run Time: 0.00958991 seconds
***** Total Elapsed Run Time:            0.673006 seconds
*****
***** End of Xyce(TM) Simulation
*****

Timing summary of 1 processor
                 Stats                   Count       CPU Time              Wall Time
---------------------------------------- ----- --------------------- ---------------------
Xyce                                         1        0.586 (100.0%)        1.017 (100.0%)
  Analysis                                   1        0.009 ( 1.61%)        0.010 ( 0.94%)
    DC Sweep                                 1        0.009 ( 1.61%)        0.010 ( 0.94%)
      Solve                                 19        0.003 ( 0.49%)        0.003 ( 0.28%)
        Residual                            93        0.001 ( 0.16%)        0.001 ( 0.09%)
        Jacobian                            73        0.000 ( 0.04%)        0.000 ( 0.03%)
        Linear Solve                        73        0.001 ( 0.11%)        0.001 ( 0.06%)
      Successful Step                       19        0.005 ( 0.92%)        0.005 ( 0.54%)
  Netlist Import                             1        0.531 (90.54%)        0.645 (63.39%)
    Parse Context                            1        0.509 (86.94%)        0.620 (60.91%)
    Distribute Devices                       1        0.015 ( 2.63%)        0.019 ( 1.91%)
    Verify Devices                           1        0.000 (<0.01%)        0.000 (<0.01%)
    Instantiate                              1        0.000 ( 0.05%)        0.000 ( 0.03%)
  Late Initialization                        1        0.002 ( 0.38%)        0.002 ( 0.23%)
    Global Indices                           1        0.000 (<0.01%)        0.000 (<0.01%)
  Setup Matrix Structure                     1        0.000 ( 0.04%)        0.000 ( 0.02%)

